!!! Generated by BlenderFDS 6.0.0 on Blender 3.0.0
!!! Date: <mer, 16 feb 2022, 09:26:37>
!!! File: <···erification/tests/test_align_meshes/bl/align_meshes.blend>
! --- Case from Blender Scene <align_meshes> and View Layer <View Layer>
&HEAD CHID='align_meshes' /
&TIME T_END=1.0 /

! --- Geometric namelists from Blender Collections

! --- Collection
! MESH Cell Qty: 120
! Cell Size: 1.000m · 0.800m · 0.667m | Aspect: 1.5 | Poisson: Yes
&MESH ID='Domain' IJK=4,5,6
      XB=0.000000,4.000000,0.000000,4.000000,0.000000,4.000000 /
! MESH Cell Qty: 180
! Cell Size: 0.714m · 0.800m · 0.667m | Aspect: 1.2 | Poisson: Yes
&MESH ID='Domain_x' IJK=6,5,6
      XB=4.000000,8.284060,0.000000,4.000000,0.000000,4.000000 /
! MESH Cell Qty: 120
! Cell Size: 1.000m · 0.859m · 0.667m | Aspect: 1.5 | Poisson: Yes
&MESH ID='Domain_y' IJK=4,5,6
      XB=0.000000,4.000000,4.000000,8.296534,0.000000,4.000000 /
! MESH Cell Qty: 120
! Cell Size: 1.000m · 0.800m · 0.731m | Aspect: 1.4 | Poisson: Yes
&MESH ID='Domain_z' IJK=4,5,6
      XB=0.000000,4.000000,0.000000,4.000000,4.000000,8.386690 /

&TAIL /
 