! Generated by BlenderFDS 6.0.0 on Blender 3.2.0 Beta
! Date: Fri, 13 May 2022, 07:17:47
! File: ···erfds.verification/tests/op_align_MESHes_export/bl/align_meshes.blend
--- Case from Blender Scene: <align_meshes> | View Layer: <View Layer>
&HEAD CHID='align_meshes' /
&TIME T_END=1.0 /

--- Geometric namelists from Blender Collections

--- Blender Collection: <Collection>
MESH Qty: 1 | Splits: 1 | Multiples: 1
Cell Qty: 120 (~120 each)
Size: 1.000 · 0.800 · 0.667m | Aspect: 1.5 | Poisson: Yes
&MESH ID='Domain' IJK=4,5,6 XB=0.0000,4.0000,0.0000,4.0000,0.0000,4.0000 /
MESH Qty: 1 | Splits: 1 | Multiples: 1
Cell Qty: 180 (~180 each)
Size: 0.714 · 0.800 · 0.667m | Aspect: 1.2 | Poisson: Yes
&MESH ID='Domain_x' IJK=6,5,6 XB=4.0000,8.2841,0.0000,4.0000,0.0000,4.0000 /
MESH Qty: 1 | Splits: 1 | Multiples: 1
Cell Qty: 120 (~120 each)
Size: 1.000 · 0.859 · 0.667m | Aspect: 1.5 | Poisson: Yes
&MESH ID='Domain_y' IJK=4,5,6 XB=0.0000,4.0000,4.0000,8.2965,0.0000,4.0000 /
MESH Qty: 1 | Splits: 1 | Multiples: 1
Cell Qty: 120 (~120 each)
Size: 1.000 · 0.800 · 0.731m | Aspect: 1.4 | Poisson: Yes
&MESH ID='Domain_z' IJK=4,5,6 XB=0.0000,4.0000,0.0000,4.0000,4.0000,8.3867 /

&TAIL /
