! Generated by BlenderFDS 6.0.0 on Blender 3.2.0 Beta
! Date: Sat, 21 May 2022, 13:47:04
! File: ···ds.verification/tests/geometries_export/./bl/xb_xyz_pb_geometry.blend

--- Case from Blender Scene: <xb_pixels_flat_modifiers> | View Layer: <View Layer>

&HEAD CHID='xb_pixels_flat_modifiers' TITLE='Test pixels of flat w modifiers' /
&TIME T_END=1.0 /

--- Boundary conditions from Blender Materials

&SURF ID='Material_red' RGB=255,0,0 /

--- Computational domain | MPI Processes: 1 | MESH Qty: 1 | Cell Qty: 8000

-- MPI Process: <0> | MESH Qty: 1 | Cell Qty: 8000
Cell Qty: 8000 | Size: 0.100·0.100·0.100m | Aspect: 1.0 | Poisson: Yes
&MESH ID='Domain' IJK=20,20,20 XB=-1.0000,1.0000,-1.0000,1.0000,-1.0000,1.0000
      MPI_PROCESS=0 /

--- Geometric namelists from Blender Collections
&OBST ID='Base' SURF_ID='INERT' XB=-1.0000,1.0000,-1.0000,1.0000,-1.0000,-0.5000 /
XB Pixels: 14 | Resolution: 0.100 m
&VENT ID='Circle_pixels_0' XB=0.8999,1.0001,0.1999,0.4001,-0.4900,-0.4900
      SURF_ID='Material_red' /
&VENT ID='Circle_pixels_1' XB=0.7999,0.9001,-0.1001,0.5001,-0.4900,-0.4900
      SURF_ID='Material_red' /
&VENT ID='Circle_pixels_2' XB=0.6999,0.8001,-0.2001,0.6001,-0.4900,-0.4900
      SURF_ID='Material_red' /
&VENT ID='Circle_pixels_3' XB=0.5999,0.7001,-0.2001,0.7001,-0.4900,-0.4900
      SURF_ID='Material_red' /
&VENT ID='Circle_pixels_4' XB=0.4999,0.6001,-0.3001,0.7001,-0.4900,-0.4900
      SURF_ID='Material_red' /
&VENT ID='Circle_pixels_5' XB=0.2999,0.5001,-0.2001,0.7001,-0.4900,-0.4900
      SURF_ID='Material_red' /
&VENT ID='Circle_pixels_6' XB=0.1999,0.3001,-0.2001,0.6001,-0.4900,-0.4900
      SURF_ID='Material_red' /
&VENT ID='Circle_pixels_7' XB=0.0999,0.2001,-0.1001,0.5001,-0.4900,-0.4900
      SURF_ID='Material_red' /
&VENT ID='Circle_pixels_8' XB=-0.0001,0.1001,-0.0001,0.5001,-0.4900,-0.4900
      SURF_ID='Material_red' /
&VENT ID='Circle_pixels_9' XB=-0.1001,0.0001,-0.7001,-0.1999,-0.4900,-0.4900
      SURF_ID='Material_red' /
&VENT ID='Circle_pixels_10' XB=-0.3001,-0.0999,-0.8001,0.0001,-0.4900,-0.4900
      SURF_ID='Material_red' /
&VENT ID='Circle_pixels_11' XB=-0.6001,-0.2999,-0.9001,0.1001,-0.4900,-0.4900
      SURF_ID='Material_red' /
&VENT ID='Circle_pixels_12' XB=-0.8001,-0.5999,-0.8001,0.0001,-0.4900,-0.4900
      SURF_ID='Material_red' /
&VENT ID='Circle_pixels_13' XB=-0.9001,-0.7999,-0.6001,-0.0999,-0.4900,-0.4900
      SURF_ID='Material_red' /

&TAIL /
