! Generated by BlenderFDS 6.0.0 on Blender 3.2.0 Beta
! Date: Thu, 12 May 2022, 17:17:07
! File: ···egissi/github/blenderfds.verification/tests/MESH_export/bl/MESH.blend
--- Case from Blender Scene: <split_mult_mesh> | View Layer: <View Layer>
&HEAD CHID='split_mult_mesh' TITLE='Testing splits' /
&TIME T_END=0.1 /

--- Geometric namelists from Blender Collections
MESH Qty: 72 | Splits: 2 | Multiples: 36
Cell Qty: 66528 (~924 each)
Size: 0.364 · 0.333 · 0.286m | Aspect: 1.3 | Poisson: No
&MESH ID='Domain_mult_s0' IJK=11,6,14
      XB=-1.5000,2.5000,-1.0000,1.0000,0.0000,4.0000 FYI='Testing splits'
      MULT_ID='Domain_mult_mult' /
&MESH ID='Domain_mult_s1' IJK=11,6,14
      XB=-1.5000,2.5000,1.0000,3.0000,0.0000,4.0000 FYI='Testing splits'
      MULT_ID='Domain_mult_mult' /
&MULT ID='Domain_mult_mult' DX=4.0000 DY=4.0000 DZ=4.0000 I_UPPER=2 J_LOWER=-1
      J_UPPER=2 K_LOWER=-2 /

&TAIL /
