! Generated by BlenderFDS 6.0.0 on Blender 3.2.0 Beta
! Date: Sat, 21 May 2022, 13:57:47
! File: ···issi/github/blenderfds.verification/tests/MESH_export/./bl/MESH.blend

--- Case from Blender Scene: <split_mult_mesh> | View Layer: <View Layer>

&HEAD CHID='split_mult_mesh' TITLE='Testing splits' /
&TIME T_END=0.1 /

--- Computational domain | MPI Processes: 1 | MESH Qty: 72 | Cell Qty: 66528

-- MPI Process: <0> | MESH Qty: 72 | Cell Qty: 66528
Cell Qty: 924 | Size: 0.364·0.333·0.286m | Aspect: 1.3 | Poisson: No
&MESH ID='Domain_mult_s0_i0_j-1_k-2' IJK=11,6,14
      XB=-1.5000,2.5000,-5.0000,-3.0000,-8.0000,-4.0000 FYI='Testing splits'
      MPI_PROCESS=0 /
Cell Qty: 924 | Size: 0.364·0.333·0.286m | Aspect: 1.3 | Poisson: No
&MESH ID='Domain_mult_s0_i0_j-1_k-1' IJK=11,6,14
      XB=-1.5000,2.5000,-5.0000,-3.0000,-4.0000,0.0000 FYI='Testing splits'
      MPI_PROCESS=0 /
Cell Qty: 924 | Size: 0.364·0.333·0.286m | Aspect: 1.3 | Poisson: No
&MESH ID='Domain_mult_s0_i0_j-1_k0' IJK=11,6,14
      XB=-1.5000,2.5000,-5.0000,-3.0000,0.0000,4.0000 FYI='Testing splits'
      MPI_PROCESS=0 /
Cell Qty: 924 | Size: 0.364·0.333·0.286m | Aspect: 1.3 | Poisson: No
&MESH ID='Domain_mult_s0_i0_j0_k-2' IJK=11,6,14
      XB=-1.5000,2.5000,-1.0000,1.0000,-8.0000,-4.0000 FYI='Testing splits'
      MPI_PROCESS=0 /
Cell Qty: 924 | Size: 0.364·0.333·0.286m | Aspect: 1.3 | Poisson: No
&MESH ID='Domain_mult_s0_i0_j0_k-1' IJK=11,6,14
      XB=-1.5000,2.5000,-1.0000,1.0000,-4.0000,0.0000 FYI='Testing splits'
      MPI_PROCESS=0 /
Cell Qty: 924 | Size: 0.364·0.333·0.286m | Aspect: 1.3 | Poisson: No
&MESH ID='Domain_mult_s0_i0_j0_k0' IJK=11,6,14
      XB=-1.5000,2.5000,-1.0000,1.0000,0.0000,4.0000 FYI='Testing splits'
      MPI_PROCESS=0 /
Cell Qty: 924 | Size: 0.364·0.333·0.286m | Aspect: 1.3 | Poisson: No
&MESH ID='Domain_mult_s0_i0_j1_k-2' IJK=11,6,14
      XB=-1.5000,2.5000,3.0000,5.0000,-8.0000,-4.0000 FYI='Testing splits'
      MPI_PROCESS=0 /
Cell Qty: 924 | Size: 0.364·0.333·0.286m | Aspect: 1.3 | Poisson: No
&MESH ID='Domain_mult_s0_i0_j1_k-1' IJK=11,6,14
      XB=-1.5000,2.5000,3.0000,5.0000,-4.0000,0.0000 FYI='Testing splits'
      MPI_PROCESS=0 /
Cell Qty: 924 | Size: 0.364·0.333·0.286m | Aspect: 1.3 | Poisson: No
&MESH ID='Domain_mult_s0_i0_j1_k0' IJK=11,6,14
      XB=-1.5000,2.5000,3.0000,5.0000,0.0000,4.0000 FYI='Testing splits'
      MPI_PROCESS=0 /
Cell Qty: 924 | Size: 0.364·0.333·0.286m | Aspect: 1.3 | Poisson: No
&MESH ID='Domain_mult_s0_i0_j2_k-2' IJK=11,6,14
      XB=-1.5000,2.5000,7.0000,9.0000,-8.0000,-4.0000 FYI='Testing splits'
      MPI_PROCESS=0 /
Cell Qty: 924 | Size: 0.364·0.333·0.286m | Aspect: 1.3 | Poisson: No
&MESH ID='Domain_mult_s0_i0_j2_k-1' IJK=11,6,14
      XB=-1.5000,2.5000,7.0000,9.0000,-4.0000,0.0000 FYI='Testing splits'
      MPI_PROCESS=0 /
Cell Qty: 924 | Size: 0.364·0.333·0.286m | Aspect: 1.3 | Poisson: No
&MESH ID='Domain_mult_s0_i0_j2_k0' IJK=11,6,14
      XB=-1.5000,2.5000,7.0000,9.0000,0.0000,4.0000 FYI='Testing splits'
      MPI_PROCESS=0 /
Cell Qty: 924 | Size: 0.364·0.333·0.286m | Aspect: 1.3 | Poisson: No
&MESH ID='Domain_mult_s0_i1_j-1_k-2' IJK=11,6,14
      XB=2.5000,6.5000,-5.0000,-3.0000,-8.0000,-4.0000 FYI='Testing splits'
      MPI_PROCESS=0 /
Cell Qty: 924 | Size: 0.364·0.333·0.286m | Aspect: 1.3 | Poisson: No
&MESH ID='Domain_mult_s0_i1_j-1_k-1' IJK=11,6,14
      XB=2.5000,6.5000,-5.0000,-3.0000,-4.0000,0.0000 FYI='Testing splits'
      MPI_PROCESS=0 /
Cell Qty: 924 | Size: 0.364·0.333·0.286m | Aspect: 1.3 | Poisson: No
&MESH ID='Domain_mult_s0_i1_j-1_k0' IJK=11,6,14
      XB=2.5000,6.5000,-5.0000,-3.0000,0.0000,4.0000 FYI='Testing splits'
      MPI_PROCESS=0 /
Cell Qty: 924 | Size: 0.364·0.333·0.286m | Aspect: 1.3 | Poisson: No
&MESH ID='Domain_mult_s0_i1_j0_k-2' IJK=11,6,14
      XB=2.5000,6.5000,-1.0000,1.0000,-8.0000,-4.0000 FYI='Testing splits'
      MPI_PROCESS=0 /
Cell Qty: 924 | Size: 0.364·0.333·0.286m | Aspect: 1.3 | Poisson: No
&MESH ID='Domain_mult_s0_i1_j0_k-1' IJK=11,6,14
      XB=2.5000,6.5000,-1.0000,1.0000,-4.0000,0.0000 FYI='Testing splits'
      MPI_PROCESS=0 /
Cell Qty: 924 | Size: 0.364·0.333·0.286m | Aspect: 1.3 | Poisson: No
&MESH ID='Domain_mult_s0_i1_j0_k0' IJK=11,6,14
      XB=2.5000,6.5000,-1.0000,1.0000,0.0000,4.0000 FYI='Testing splits'
      MPI_PROCESS=0 /
Cell Qty: 924 | Size: 0.364·0.333·0.286m | Aspect: 1.3 | Poisson: No
&MESH ID='Domain_mult_s0_i1_j1_k-2' IJK=11,6,14
      XB=2.5000,6.5000,3.0000,5.0000,-8.0000,-4.0000 FYI='Testing splits'
      MPI_PROCESS=0 /
Cell Qty: 924 | Size: 0.364·0.333·0.286m | Aspect: 1.3 | Poisson: No
&MESH ID='Domain_mult_s0_i1_j1_k-1' IJK=11,6,14
      XB=2.5000,6.5000,3.0000,5.0000,-4.0000,0.0000 FYI='Testing splits'
      MPI_PROCESS=0 /
Cell Qty: 924 | Size: 0.364·0.333·0.286m | Aspect: 1.3 | Poisson: No
&MESH ID='Domain_mult_s0_i1_j1_k0' IJK=11,6,14
      XB=2.5000,6.5000,3.0000,5.0000,0.0000,4.0000 FYI='Testing splits'
      MPI_PROCESS=0 /
Cell Qty: 924 | Size: 0.364·0.333·0.286m | Aspect: 1.3 | Poisson: No
&MESH ID='Domain_mult_s0_i1_j2_k-2' IJK=11,6,14
      XB=2.5000,6.5000,7.0000,9.0000,-8.0000,-4.0000 FYI='Testing splits'
      MPI_PROCESS=0 /
Cell Qty: 924 | Size: 0.364·0.333·0.286m | Aspect: 1.3 | Poisson: No
&MESH ID='Domain_mult_s0_i1_j2_k-1' IJK=11,6,14
      XB=2.5000,6.5000,7.0000,9.0000,-4.0000,0.0000 FYI='Testing splits'
      MPI_PROCESS=0 /
Cell Qty: 924 | Size: 0.364·0.333·0.286m | Aspect: 1.3 | Poisson: No
&MESH ID='Domain_mult_s0_i1_j2_k0' IJK=11,6,14
      XB=2.5000,6.5000,7.0000,9.0000,0.0000,4.0000 FYI='Testing splits'
      MPI_PROCESS=0 /
Cell Qty: 924 | Size: 0.364·0.333·0.286m | Aspect: 1.3 | Poisson: No
&MESH ID='Domain_mult_s0_i2_j-1_k-2' IJK=11,6,14
      XB=6.5000,10.5000,-5.0000,-3.0000,-8.0000,-4.0000 FYI='Testing splits'
      MPI_PROCESS=0 /
Cell Qty: 924 | Size: 0.364·0.333·0.286m | Aspect: 1.3 | Poisson: No
&MESH ID='Domain_mult_s0_i2_j-1_k-1' IJK=11,6,14
      XB=6.5000,10.5000,-5.0000,-3.0000,-4.0000,0.0000 FYI='Testing splits'
      MPI_PROCESS=0 /
Cell Qty: 924 | Size: 0.364·0.333·0.286m | Aspect: 1.3 | Poisson: No
&MESH ID='Domain_mult_s0_i2_j-1_k0' IJK=11,6,14
      XB=6.5000,10.5000,-5.0000,-3.0000,0.0000,4.0000 FYI='Testing splits'
      MPI_PROCESS=0 /
Cell Qty: 924 | Size: 0.364·0.333·0.286m | Aspect: 1.3 | Poisson: No
&MESH ID='Domain_mult_s0_i2_j0_k-2' IJK=11,6,14
      XB=6.5000,10.5000,-1.0000,1.0000,-8.0000,-4.0000 FYI='Testing splits'
      MPI_PROCESS=0 /
Cell Qty: 924 | Size: 0.364·0.333·0.286m | Aspect: 1.3 | Poisson: No
&MESH ID='Domain_mult_s0_i2_j0_k-1' IJK=11,6,14
      XB=6.5000,10.5000,-1.0000,1.0000,-4.0000,0.0000 FYI='Testing splits'
      MPI_PROCESS=0 /
Cell Qty: 924 | Size: 0.364·0.333·0.286m | Aspect: 1.3 | Poisson: No
&MESH ID='Domain_mult_s0_i2_j0_k0' IJK=11,6,14
      XB=6.5000,10.5000,-1.0000,1.0000,0.0000,4.0000 FYI='Testing splits'
      MPI_PROCESS=0 /
Cell Qty: 924 | Size: 0.364·0.333·0.286m | Aspect: 1.3 | Poisson: No
&MESH ID='Domain_mult_s0_i2_j1_k-2' IJK=11,6,14
      XB=6.5000,10.5000,3.0000,5.0000,-8.0000,-4.0000 FYI='Testing splits'
      MPI_PROCESS=0 /
Cell Qty: 924 | Size: 0.364·0.333·0.286m | Aspect: 1.3 | Poisson: No
&MESH ID='Domain_mult_s0_i2_j1_k-1' IJK=11,6,14
      XB=6.5000,10.5000,3.0000,5.0000,-4.0000,0.0000 FYI='Testing splits'
      MPI_PROCESS=0 /
Cell Qty: 924 | Size: 0.364·0.333·0.286m | Aspect: 1.3 | Poisson: No
&MESH ID='Domain_mult_s0_i2_j1_k0' IJK=11,6,14
      XB=6.5000,10.5000,3.0000,5.0000,0.0000,4.0000 FYI='Testing splits'
      MPI_PROCESS=0 /
Cell Qty: 924 | Size: 0.364·0.333·0.286m | Aspect: 1.3 | Poisson: No
&MESH ID='Domain_mult_s0_i2_j2_k-2' IJK=11,6,14
      XB=6.5000,10.5000,7.0000,9.0000,-8.0000,-4.0000 FYI='Testing splits'
      MPI_PROCESS=0 /
Cell Qty: 924 | Size: 0.364·0.333·0.286m | Aspect: 1.3 | Poisson: No
&MESH ID='Domain_mult_s0_i2_j2_k-1' IJK=11,6,14
      XB=6.5000,10.5000,7.0000,9.0000,-4.0000,0.0000 FYI='Testing splits'
      MPI_PROCESS=0 /
Cell Qty: 924 | Size: 0.364·0.333·0.286m | Aspect: 1.3 | Poisson: No
&MESH ID='Domain_mult_s0_i2_j2_k0' IJK=11,6,14
      XB=6.5000,10.5000,7.0000,9.0000,0.0000,4.0000 FYI='Testing splits'
      MPI_PROCESS=0 /
Cell Qty: 924 | Size: 0.364·0.333·0.286m | Aspect: 1.3 | Poisson: No
&MESH ID='Domain_mult_s1_i0_j-1_k-2' IJK=11,6,14
      XB=-1.5000,2.5000,-3.0000,-1.0000,-8.0000,-4.0000 FYI='Testing splits'
      MPI_PROCESS=0 /
Cell Qty: 924 | Size: 0.364·0.333·0.286m | Aspect: 1.3 | Poisson: No
&MESH ID='Domain_mult_s1_i0_j-1_k-1' IJK=11,6,14
      XB=-1.5000,2.5000,-3.0000,-1.0000,-4.0000,0.0000 FYI='Testing splits'
      MPI_PROCESS=0 /
Cell Qty: 924 | Size: 0.364·0.333·0.286m | Aspect: 1.3 | Poisson: No
&MESH ID='Domain_mult_s1_i0_j-1_k0' IJK=11,6,14
      XB=-1.5000,2.5000,-3.0000,-1.0000,0.0000,4.0000 FYI='Testing splits'
      MPI_PROCESS=0 /
Cell Qty: 924 | Size: 0.364·0.333·0.286m | Aspect: 1.3 | Poisson: No
&MESH ID='Domain_mult_s1_i0_j0_k-2' IJK=11,6,14
      XB=-1.5000,2.5000,1.0000,3.0000,-8.0000,-4.0000 FYI='Testing splits'
      MPI_PROCESS=0 /
Cell Qty: 924 | Size: 0.364·0.333·0.286m | Aspect: 1.3 | Poisson: No
&MESH ID='Domain_mult_s1_i0_j0_k-1' IJK=11,6,14
      XB=-1.5000,2.5000,1.0000,3.0000,-4.0000,0.0000 FYI='Testing splits'
      MPI_PROCESS=0 /
Cell Qty: 924 | Size: 0.364·0.333·0.286m | Aspect: 1.3 | Poisson: No
&MESH ID='Domain_mult_s1_i0_j0_k0' IJK=11,6,14
      XB=-1.5000,2.5000,1.0000,3.0000,0.0000,4.0000 FYI='Testing splits'
      MPI_PROCESS=0 /
Cell Qty: 924 | Size: 0.364·0.333·0.286m | Aspect: 1.3 | Poisson: No
&MESH ID='Domain_mult_s1_i0_j1_k-2' IJK=11,6,14
      XB=-1.5000,2.5000,5.0000,7.0000,-8.0000,-4.0000 FYI='Testing splits'
      MPI_PROCESS=0 /
Cell Qty: 924 | Size: 0.364·0.333·0.286m | Aspect: 1.3 | Poisson: No
&MESH ID='Domain_mult_s1_i0_j1_k-1' IJK=11,6,14
      XB=-1.5000,2.5000,5.0000,7.0000,-4.0000,0.0000 FYI='Testing splits'
      MPI_PROCESS=0 /
Cell Qty: 924 | Size: 0.364·0.333·0.286m | Aspect: 1.3 | Poisson: No
&MESH ID='Domain_mult_s1_i0_j1_k0' IJK=11,6,14
      XB=-1.5000,2.5000,5.0000,7.0000,0.0000,4.0000 FYI='Testing splits'
      MPI_PROCESS=0 /
Cell Qty: 924 | Size: 0.364·0.333·0.286m | Aspect: 1.3 | Poisson: No
&MESH ID='Domain_mult_s1_i0_j2_k-2' IJK=11,6,14
      XB=-1.5000,2.5000,9.0000,11.0000,-8.0000,-4.0000 FYI='Testing splits'
      MPI_PROCESS=0 /
Cell Qty: 924 | Size: 0.364·0.333·0.286m | Aspect: 1.3 | Poisson: No
&MESH ID='Domain_mult_s1_i0_j2_k-1' IJK=11,6,14
      XB=-1.5000,2.5000,9.0000,11.0000,-4.0000,0.0000 FYI='Testing splits'
      MPI_PROCESS=0 /
Cell Qty: 924 | Size: 0.364·0.333·0.286m | Aspect: 1.3 | Poisson: No
&MESH ID='Domain_mult_s1_i0_j2_k0' IJK=11,6,14
      XB=-1.5000,2.5000,9.0000,11.0000,0.0000,4.0000 FYI='Testing splits'
      MPI_PROCESS=0 /
Cell Qty: 924 | Size: 0.364·0.333·0.286m | Aspect: 1.3 | Poisson: No
&MESH ID='Domain_mult_s1_i1_j-1_k-2' IJK=11,6,14
      XB=2.5000,6.5000,-3.0000,-1.0000,-8.0000,-4.0000 FYI='Testing splits'
      MPI_PROCESS=0 /
Cell Qty: 924 | Size: 0.364·0.333·0.286m | Aspect: 1.3 | Poisson: No
&MESH ID='Domain_mult_s1_i1_j-1_k-1' IJK=11,6,14
      XB=2.5000,6.5000,-3.0000,-1.0000,-4.0000,0.0000 FYI='Testing splits'
      MPI_PROCESS=0 /
Cell Qty: 924 | Size: 0.364·0.333·0.286m | Aspect: 1.3 | Poisson: No
&MESH ID='Domain_mult_s1_i1_j-1_k0' IJK=11,6,14
      XB=2.5000,6.5000,-3.0000,-1.0000,0.0000,4.0000 FYI='Testing splits'
      MPI_PROCESS=0 /
Cell Qty: 924 | Size: 0.364·0.333·0.286m | Aspect: 1.3 | Poisson: No
&MESH ID='Domain_mult_s1_i1_j0_k-2' IJK=11,6,14
      XB=2.5000,6.5000,1.0000,3.0000,-8.0000,-4.0000 FYI='Testing splits'
      MPI_PROCESS=0 /
Cell Qty: 924 | Size: 0.364·0.333·0.286m | Aspect: 1.3 | Poisson: No
&MESH ID='Domain_mult_s1_i1_j0_k-1' IJK=11,6,14
      XB=2.5000,6.5000,1.0000,3.0000,-4.0000,0.0000 FYI='Testing splits'
      MPI_PROCESS=0 /
Cell Qty: 924 | Size: 0.364·0.333·0.286m | Aspect: 1.3 | Poisson: No
&MESH ID='Domain_mult_s1_i1_j0_k0' IJK=11,6,14
      XB=2.5000,6.5000,1.0000,3.0000,0.0000,4.0000 FYI='Testing splits'
      MPI_PROCESS=0 /
Cell Qty: 924 | Size: 0.364·0.333·0.286m | Aspect: 1.3 | Poisson: No
&MESH ID='Domain_mult_s1_i1_j1_k-2' IJK=11,6,14
      XB=2.5000,6.5000,5.0000,7.0000,-8.0000,-4.0000 FYI='Testing splits'
      MPI_PROCESS=0 /
Cell Qty: 924 | Size: 0.364·0.333·0.286m | Aspect: 1.3 | Poisson: No
&MESH ID='Domain_mult_s1_i1_j1_k-1' IJK=11,6,14
      XB=2.5000,6.5000,5.0000,7.0000,-4.0000,0.0000 FYI='Testing splits'
      MPI_PROCESS=0 /
Cell Qty: 924 | Size: 0.364·0.333·0.286m | Aspect: 1.3 | Poisson: No
&MESH ID='Domain_mult_s1_i1_j1_k0' IJK=11,6,14
      XB=2.5000,6.5000,5.0000,7.0000,0.0000,4.0000 FYI='Testing splits'
      MPI_PROCESS=0 /
Cell Qty: 924 | Size: 0.364·0.333·0.286m | Aspect: 1.3 | Poisson: No
&MESH ID='Domain_mult_s1_i1_j2_k-2' IJK=11,6,14
      XB=2.5000,6.5000,9.0000,11.0000,-8.0000,-4.0000 FYI='Testing splits'
      MPI_PROCESS=0 /
Cell Qty: 924 | Size: 0.364·0.333·0.286m | Aspect: 1.3 | Poisson: No
&MESH ID='Domain_mult_s1_i1_j2_k-1' IJK=11,6,14
      XB=2.5000,6.5000,9.0000,11.0000,-4.0000,0.0000 FYI='Testing splits'
      MPI_PROCESS=0 /
Cell Qty: 924 | Size: 0.364·0.333·0.286m | Aspect: 1.3 | Poisson: No
&MESH ID='Domain_mult_s1_i1_j2_k0' IJK=11,6,14
      XB=2.5000,6.5000,9.0000,11.0000,0.0000,4.0000 FYI='Testing splits'
      MPI_PROCESS=0 /
Cell Qty: 924 | Size: 0.364·0.333·0.286m | Aspect: 1.3 | Poisson: No
&MESH ID='Domain_mult_s1_i2_j-1_k-2' IJK=11,6,14
      XB=6.5000,10.5000,-3.0000,-1.0000,-8.0000,-4.0000 FYI='Testing splits'
      MPI_PROCESS=0 /
Cell Qty: 924 | Size: 0.364·0.333·0.286m | Aspect: 1.3 | Poisson: No
&MESH ID='Domain_mult_s1_i2_j-1_k-1' IJK=11,6,14
      XB=6.5000,10.5000,-3.0000,-1.0000,-4.0000,0.0000 FYI='Testing splits'
      MPI_PROCESS=0 /
Cell Qty: 924 | Size: 0.364·0.333·0.286m | Aspect: 1.3 | Poisson: No
&MESH ID='Domain_mult_s1_i2_j-1_k0' IJK=11,6,14
      XB=6.5000,10.5000,-3.0000,-1.0000,0.0000,4.0000 FYI='Testing splits'
      MPI_PROCESS=0 /
Cell Qty: 924 | Size: 0.364·0.333·0.286m | Aspect: 1.3 | Poisson: No
&MESH ID='Domain_mult_s1_i2_j0_k-2' IJK=11,6,14
      XB=6.5000,10.5000,1.0000,3.0000,-8.0000,-4.0000 FYI='Testing splits'
      MPI_PROCESS=0 /
Cell Qty: 924 | Size: 0.364·0.333·0.286m | Aspect: 1.3 | Poisson: No
&MESH ID='Domain_mult_s1_i2_j0_k-1' IJK=11,6,14
      XB=6.5000,10.5000,1.0000,3.0000,-4.0000,0.0000 FYI='Testing splits'
      MPI_PROCESS=0 /
Cell Qty: 924 | Size: 0.364·0.333·0.286m | Aspect: 1.3 | Poisson: No
&MESH ID='Domain_mult_s1_i2_j0_k0' IJK=11,6,14
      XB=6.5000,10.5000,1.0000,3.0000,0.0000,4.0000 FYI='Testing splits'
      MPI_PROCESS=0 /
Cell Qty: 924 | Size: 0.364·0.333·0.286m | Aspect: 1.3 | Poisson: No
&MESH ID='Domain_mult_s1_i2_j1_k-2' IJK=11,6,14
      XB=6.5000,10.5000,5.0000,7.0000,-8.0000,-4.0000 FYI='Testing splits'
      MPI_PROCESS=0 /
Cell Qty: 924 | Size: 0.364·0.333·0.286m | Aspect: 1.3 | Poisson: No
&MESH ID='Domain_mult_s1_i2_j1_k-1' IJK=11,6,14
      XB=6.5000,10.5000,5.0000,7.0000,-4.0000,0.0000 FYI='Testing splits'
      MPI_PROCESS=0 /
Cell Qty: 924 | Size: 0.364·0.333·0.286m | Aspect: 1.3 | Poisson: No
&MESH ID='Domain_mult_s1_i2_j1_k0' IJK=11,6,14
      XB=6.5000,10.5000,5.0000,7.0000,0.0000,4.0000 FYI='Testing splits'
      MPI_PROCESS=0 /
Cell Qty: 924 | Size: 0.364·0.333·0.286m | Aspect: 1.3 | Poisson: No
&MESH ID='Domain_mult_s1_i2_j2_k-2' IJK=11,6,14
      XB=6.5000,10.5000,9.0000,11.0000,-8.0000,-4.0000 FYI='Testing splits'
      MPI_PROCESS=0 /
Cell Qty: 924 | Size: 0.364·0.333·0.286m | Aspect: 1.3 | Poisson: No
&MESH ID='Domain_mult_s1_i2_j2_k-1' IJK=11,6,14
      XB=6.5000,10.5000,9.0000,11.0000,-4.0000,0.0000 FYI='Testing splits'
      MPI_PROCESS=0 /
Cell Qty: 924 | Size: 0.364·0.333·0.286m | Aspect: 1.3 | Poisson: No
&MESH ID='Domain_mult_s1_i2_j2_k0' IJK=11,6,14
      XB=6.5000,10.5000,9.0000,11.0000,0.0000,4.0000 FYI='Testing splits'
      MPI_PROCESS=0 /

&TAIL /
