! Generated by BlenderFDS 6.0.0 on Blender 3.2.0 Beta
! Date: Sat, 21 May 2022, 08:31:11
! File: /tmp/tmpe6n9svki/Beyler_Hood_propane_389_lr.blend

--- Case from Blender Scene: <Beyler_Hood_propane_389_lr> | View Layer: <ViewLayer>

&HEAD CHID='Beyler_Hood_propane_389_lr'
      TITLE='Beyler Hood Test 389 18.25 kW PROPANE, 19.5 cm burner, 0 cm sepe' /
&TIME T_END=0.1 /
&REAC FUEL='PROPANE' CO_YIELD=0.005 SOOT_YIELD=0.024
      AIT_EXCLUSION_ZONE=-0.12,0.12,-0.12,0.12,-0.20,0.10
      AUTO_IGNITION_TEMPERATURE=450.0 /
&DUMP NFRAMES=250 /

--- Free text from Blender Text: <New Text>

-- From: <Beyler_Hood_propane_389_lr.fds>
&COMB RADIATIVE_FRACTION=0.0 N_SIMPLE_CHEMISTRY_REACTIONS=2 /
&CTRL ID='O2 SUM' FUNCTION_TYPE='SUM' INPUT_ID='O2-0','O2-10','O2-20','O2-30',
      'O2-40','O2-50','O2-60','O2-70','O2-80','O2-90','O2-100','O2-110',
      'O2-120','O2-130','O2-140','O2-150','O2-160','O2-170','O2-180','O2-190',
      'O2-200','O2-210','O2-220','O2-230','O2-240','O2-250','O2-260','O2-270',
      'O2-280','O2-290','O2-300','O2-310','O2-320','O2-330','O2-340','O2-350' /
&CTRL ID='O2 AVERAGE' FUNCTION_TYPE='DIVIDE' INPUT_ID='O2 SUM','CONSTANT'
      CONSTANT=36.0 /
&CTRL ID='CO2 SUM' FUNCTION_TYPE='SUM' INPUT_ID='CO2-0','CO2-10','CO2-20',
      'CO2-30','CO2-40','CO2-50','CO2-60','CO2-70','CO2-80','CO2-90','CO2-100',
      'CO2-110','CO2-120','CO2-130','CO2-140','CO2-150','CO2-160','CO2-170',
      'CO2-180','CO2-190','CO2-200','CO2-210','CO2-220','CO2-230','CO2-240',
      'CO2-250','CO2-260','CO2-270','CO2-280','CO2-290','CO2-300','CO2-310',
      'CO2-320','CO2-330','CO2-340','CO2-350' /
&CTRL ID='CO2 AVERAGE' FUNCTION_TYPE='DIVIDE' INPUT_ID='CO2 SUM','CONSTANT'
      CONSTANT=36.0 /
&CTRL ID='H2O SUM' FUNCTION_TYPE='SUM' INPUT_ID='H2O-0','H2O-10','H2O-20',
      'H2O-30','H2O-40','H2O-50','H2O-60','H2O-70','H2O-80','H2O-90','H2O-100',
      'H2O-110','H2O-120','H2O-130','H2O-140','H2O-150','H2O-160','H2O-170',
      'H2O-180','H2O-190','H2O-200','H2O-210','H2O-220','H2O-230','H2O-240',
      'H2O-250','H2O-260','H2O-270','H2O-280','H2O-290','H2O-300','H2O-310',
      'H2O-320','H2O-330','H2O-340','H2O-350' /
&CTRL ID='H2O AVERAGE' FUNCTION_TYPE='DIVIDE' INPUT_ID='H2O SUM','CONSTANT'
      CONSTANT=36.0 /
&CTRL ID='CO SUM' FUNCTION_TYPE='SUM' INPUT_ID='CO-0','CO-10','CO-20','CO-30',
      'CO-40','CO-50','CO-60','CO-70','CO-80','CO-90','CO-100','CO-110',
      'CO-120','CO-130','CO-140','CO-150','CO-160','CO-170','CO-180','CO-190',
      'CO-200','CO-210','CO-220','CO-230','CO-240','CO-250','CO-260','CO-270',
      'CO-280','CO-290','CO-300','CO-310','CO-320','CO-330','CO-340','CO-350' /
&CTRL ID='CO AVERAGE' FUNCTION_TYPE='DIVIDE' INPUT_ID='CO SUM','CONSTANT'
      CONSTANT=36.0 /
&CTRL ID='FUEL SUM' FUNCTION_TYPE='SUM' INPUT_ID='FUEL-0','FUEL-10','FUEL-20',
      'FUEL-30','FUEL-40','FUEL-50','FUEL-60','FUEL-70','FUEL-80','FUEL-90',
      'FUEL-100','FUEL-110','FUEL-120','FUEL-130','FUEL-140','FUEL-150',
      'FUEL-160','FUEL-170','FUEL-180','FUEL-190','FUEL-200','FUEL-210',
      'FUEL-220','FUEL-230','FUEL-240','FUEL-250','FUEL-260','FUEL-270',
      'FUEL-280','FUEL-290','FUEL-300','FUEL-310','FUEL-320','FUEL-330',
      'FUEL-340','FUEL-350' /
&CTRL ID='FUEL AVERAGE' FUNCTION_TYPE='DIVIDE' INPUT_ID='FUEL SUM','CONSTANT'
      CONSTANT=36.0 /
&CTRL ID='SOOT SUM' FUNCTION_TYPE='SUM' INPUT_ID='SOOT-0','SOOT-10','SOOT-20',
      'SOOT-30','SOOT-40','SOOT-50','SOOT-60','SOOT-70','SOOT-80','SOOT-90',
      'SOOT-100','SOOT-110','SOOT-120','SOOT-130','SOOT-140','SOOT-150',
      'SOOT-160','SOOT-170','SOOT-180','SOOT-190','SOOT-200','SOOT-210',
      'SOOT-220','SOOT-230','SOOT-240','SOOT-250','SOOT-260','SOOT-270',
      'SOOT-280','SOOT-290','SOOT-300','SOOT-310','SOOT-320','SOOT-330',
      'SOOT-340','SOOT-350' /
&CTRL ID='SOOT AVERAGE' FUNCTION_TYPE='DIVIDE' INPUT_ID='SOOT SUM','CONSTANT'
      CONSTANT=36.0 /
&CTRL ID='TEMP SUM' FUNCTION_TYPE='SUM' INPUT_ID='TEMP-0','TEMP-10','TEMP-20',
      'TEMP-30','TEMP-40','TEMP-50','TEMP-60','TEMP-70','TEMP-80','TEMP-90',
      'TEMP-100','TEMP-110','TEMP-120','TEMP-130','TEMP-140','TEMP-150',
      'TEMP-160','TEMP-170','TEMP-180','TEMP-190','TEMP-200','TEMP-210',
      'TEMP-220','TEMP-230','TEMP-240','TEMP-250','TEMP-260','TEMP-270',
      'TEMP-280','TEMP-290','TEMP-300','TEMP-310','TEMP-320','TEMP-330',
      'TEMP-340','TEMP-350' /
&CTRL ID='TEMP AVERAGE' FUNCTION_TYPE='DIVIDE' INPUT_ID='TEMP SUM','CONSTANT'
      CONSTANT=36.0 /

--- Boundary conditions from Blender Materials

&SURF ID='EXHAUST' RGB=0,255,0 MASS_FLUX_TOTAL=0.044531 ADIABATIC=T TAU_V=0.0 /
&SURF ID='FIRE' RGB=255,128,0 SPEC_ID='PROPANE' MASS_FLUX(1)=0.013676 /
&SURF ID='INS' RGB=204,204,204 ADIABATIC=T DEFAULT=T /

--- Computational domain | MPI Processes: 1 | MESH Qty: 1 | Cell Qty: 31104

-- MPI Process: <0> | MESH Qty: 1 | Cell Qty: 31104
Cell Qty: 31104 | Size: 0.030·0.030·0.030m | Aspect: 1.0 | Poisson: Yes
&MESH ID='New MESH' IJK=36,36,24 XB=-0.5400,0.5400,-0.5400,0.5400,-0.2400,0.4800
      MPI_PROCESS=0 /

--- Geometric namelists from Blender Collections

-- Blender Collection: <New Obstacles>
&HOLE ID='New HOLE' XB=-0.4800,-0.4500,-0.1200,0.1200,-0.0010,0.3300 /
&HOLE ID='New HOLE.001' XB=-0.4500,-0.4200,-0.2100,0.2100,-0.0010,0.3300 /
&HOLE ID='New HOLE.002' XB=-0.4200,-0.3900,-0.2700,0.2700,-0.0010,0.3300 /
&HOLE ID='New HOLE.003' XB=-0.3900,-0.3600,-0.3000,0.3000,-0.0010,0.3300 /
&HOLE ID='New HOLE.004' XB=-0.3600,-0.3000,-0.3600,0.3600,-0.0010,0.3300 /
&HOLE ID='New HOLE.005' XB=-0.3000,-0.2700,-0.3900,0.3900,-0.0010,0.3300 /
&HOLE ID='New HOLE.006' XB=-0.2700,-0.2100,-0.4200,0.4200,-0.0010,0.3300 /
&HOLE ID='New HOLE.007' XB=-0.2100,-0.1200,-0.4500,0.4500,-0.0010,0.3300 /
&HOLE ID='New HOLE.008' XB=-0.1200,0.1200,-0.4800,0.4800,-0.0010,0.3300 /
&HOLE ID='New HOLE.009' XB=0.4500,0.4800,-0.1200,0.1200,-0.0010,0.3300 /
&HOLE ID='New HOLE.010' XB=0.4200,0.4500,-0.2100,0.2100,-0.0010,0.3300 /
&HOLE ID='New HOLE.011' XB=0.3900,0.4200,-0.2700,0.2700,-0.0010,0.3300 /
&HOLE ID='New HOLE.012' XB=0.3600,0.3900,-0.3000,0.3000,-0.0010,0.3300 /
&HOLE ID='New HOLE.013' XB=0.3000,0.3600,-0.3600,0.3600,-0.0010,0.3300 /
&HOLE ID='New HOLE.014' XB=0.2700,0.3000,-0.3900,0.3900,-0.0010,0.3300 /
&HOLE ID='New HOLE.015' XB=0.2100,0.2700,-0.4200,0.4200,-0.0010,0.3300 /
&HOLE ID='New HOLE.016' XB=0.1200,0.2100,-0.4500,0.4500,-0.0010,0.3300 /
&HOLE ID='New HOLE.017' XB=-0.5100,-0.4800,-0.1500,0.1500,0.3300,0.4810 /
&HOLE ID='New HOLE.018' XB=-0.4800,-0.4500,-0.2100,0.2100,0.3300,0.4810 /
&HOLE ID='New HOLE.019' XB=-0.4500,-0.4200,-0.2700,0.2700,0.3300,0.4810 /
&HOLE ID='New HOLE.020' XB=-0.4200,-0.3900,-0.3300,0.3300,0.3300,0.4810 /
&HOLE ID='New HOLE.021' XB=-0.3900,-0.3600,-0.3600,0.3600,0.3300,0.4810 /
&HOLE ID='New HOLE.022' XB=-0.3600,-0.3300,-0.3900,0.3900,0.3300,0.4810 /
&HOLE ID='New HOLE.023' XB=-0.3300,-0.2700,-0.4200,0.4200,0.3300,0.4810 /
&HOLE ID='New HOLE.024' XB=-0.2700,-0.2100,-0.4500,0.4500,0.3300,0.4810 /
&HOLE ID='New HOLE.025' XB=-0.2100,-0.1500,-0.4800,0.4800,0.3300,0.4810 /
&HOLE ID='New HOLE.026' XB=-0.1500,0.1500,-0.5100,0.5100,0.3300,0.4810 /
&HOLE ID='New HOLE.027' XB=0.4800,0.5100,-0.1500,0.1500,0.3300,0.4810 /
&HOLE ID='New HOLE.028' XB=0.4500,0.4800,-0.2100,0.2100,0.3300,0.4810 /
&HOLE ID='New HOLE.029' XB=0.4200,0.4500,-0.2700,0.2700,0.3300,0.4810 /
&HOLE ID='New HOLE.030' XB=0.3900,0.4200,-0.3300,0.3300,0.3300,0.4810 /
&HOLE ID='New HOLE.031' XB=0.3600,0.3900,-0.3600,0.3600,0.3300,0.4810 /
&HOLE ID='New HOLE.032' XB=0.3300,0.3600,-0.3900,0.3900,0.3300,0.4810 /
&HOLE ID='New HOLE.033' XB=0.2700,0.3300,-0.4200,0.4200,0.3300,0.4810 /
&HOLE ID='New HOLE.034' XB=0.2100,0.2700,-0.4500,0.4500,0.3300,0.4810 /
&HOLE ID='New HOLE.035' XB=0.1500,0.2100,-0.4800,0.4800,0.3300,0.4810 /
&OBST ID='New OBST' SURF_ID='INERT'
      XB=-0.1200,-0.0900,-0.0900,0.0900,-0.2400,0.0000 PERMIT_HOLE=F /
&OBST ID='New OBST.001' SURF_ID='INERT'
      XB=-0.0900,0.0900,-0.1200,0.1200,-0.2400,0.0000 PERMIT_HOLE=F /
&OBST ID='New OBST.002' SURF_ID='INERT'
      XB=0.0900,0.1200,-0.0900,0.0900,-0.2400,0.0000 PERMIT_HOLE=F /
&OBST ID='New OBST.003' XB=-0.6000,-0.5700,-0.1500,0.1500,0.0000,0.3300
      SURF_IDS='EXHAUST','INS','INS' /
&OBST ID='New OBST.004' XB=-0.5700,-0.5400,-0.2400,0.2400,0.0000,0.3300
      SURF_IDS='EXHAUST','INS','INS' /
&OBST ID='New OBST.005' XB=-0.5400,-0.5100,-0.3000,0.3000,0.0000,0.3300
      SURF_IDS='EXHAUST','INS','INS' /
&OBST ID='New OBST.006' XB=-0.5100,-0.4800,-0.3600,0.3600,0.0000,0.3300
      SURF_IDS='EXHAUST','INS','INS' /
&OBST ID='New OBST.007' XB=-0.4800,-0.4500,-0.3900,0.3900,0.0000,0.3300
      SURF_IDS='EXHAUST','INS','INS' /
&OBST ID='New OBST.008' XB=-0.4500,-0.4200,-0.4200,0.4200,0.0000,0.3300
      SURF_IDS='EXHAUST','INS','INS' /
&OBST ID='New OBST.009' XB=-0.4200,-0.3900,-0.4500,0.4500,0.0000,0.3300
      SURF_IDS='EXHAUST','INS','INS' /
&OBST ID='New OBST.010' XB=-0.3900,-0.3600,-0.4800,0.4800,0.0000,0.3300
      SURF_IDS='EXHAUST','INS','INS' /
&OBST ID='New OBST.011' XB=-0.3600,-0.3000,-0.5100,0.5100,0.0000,0.3300
      SURF_IDS='EXHAUST','INS','INS' /
&OBST ID='New OBST.012' XB=-0.3000,-0.2400,-0.5400,0.5400,0.0000,0.3300
      SURF_IDS='EXHAUST','INS','INS' /
&OBST ID='New OBST.013' XB=-0.2400,-0.1500,-0.5700,0.5700,0.0000,0.3300
      SURF_IDS='EXHAUST','INS','INS' /
&OBST ID='New OBST.014' XB=-0.1500,0.1500,-0.6000,0.6000,0.0000,0.3300
      SURF_IDS='EXHAUST','INS','INS' /
&OBST ID='New OBST.015' XB=0.5700,0.6000,-0.1500,0.1500,0.0000,0.3300
      SURF_IDS='EXHAUST','INS','INS' /
&OBST ID='New OBST.016' XB=0.5400,0.5700,-0.2400,0.2400,0.0000,0.3300
      SURF_IDS='EXHAUST','INS','INS' /
&OBST ID='New OBST.017' XB=0.5100,0.5400,-0.3000,0.3000,0.0000,0.3300
      SURF_IDS='EXHAUST','INS','INS' /
&OBST ID='New OBST.018' XB=0.4800,0.5100,-0.3600,0.3600,0.0000,0.3300
      SURF_IDS='EXHAUST','INS','INS' /
&OBST ID='New OBST.019' XB=0.4500,0.4800,-0.3900,0.3900,0.0000,0.3300
      SURF_IDS='EXHAUST','INS','INS' /
&OBST ID='New OBST.020' XB=0.4200,0.4500,-0.4200,0.4200,0.0000,0.3300
      SURF_IDS='EXHAUST','INS','INS' /
&OBST ID='New OBST.021' XB=0.3900,0.4200,-0.4500,0.4500,0.0000,0.3300
      SURF_IDS='EXHAUST','INS','INS' /
&OBST ID='New OBST.022' XB=0.3600,0.3900,-0.4800,0.4800,0.0000,0.3300
      SURF_IDS='EXHAUST','INS','INS' /
&OBST ID='New OBST.023' XB=0.3000,0.3600,-0.5100,0.5100,0.0000,0.3300
      SURF_IDS='EXHAUST','INS','INS' /
&OBST ID='New OBST.024' XB=0.2400,0.3000,-0.5400,0.5400,0.0000,0.3300
      SURF_IDS='EXHAUST','INS','INS' /
&OBST ID='New OBST.025' XB=0.1500,0.2400,-0.5700,0.5700,0.0000,0.3300
      SURF_IDS='EXHAUST','INS','INS' /
&OBST ID='New OBST.026' SURF_ID='INS'
      XB=-0.6000,-0.5700,-0.1500,0.1500,0.3300,0.4800 /
&OBST ID='New OBST.027' SURF_ID='INS'
      XB=-0.5700,-0.5400,-0.2400,0.2400,0.3300,0.4800 /
&OBST ID='New OBST.028' SURF_ID='INS'
      XB=-0.5400,-0.5100,-0.3000,0.3000,0.3300,0.4800 /
&OBST ID='New OBST.029' SURF_ID='INS'
      XB=-0.5100,-0.4800,-0.3600,0.3600,0.3300,0.4800 /
&OBST ID='New OBST.030' SURF_ID='INS'
      XB=-0.4800,-0.4500,-0.3900,0.3900,0.3300,0.4800 /
&OBST ID='New OBST.031' SURF_ID='INS'
      XB=-0.4500,-0.4200,-0.4200,0.4200,0.3300,0.4800 /
&OBST ID='New OBST.032' SURF_ID='INS'
      XB=-0.4200,-0.3900,-0.4500,0.4500,0.3300,0.4800 /
&OBST ID='New OBST.033' SURF_ID='INS'
      XB=-0.3900,-0.3600,-0.4800,0.4800,0.3300,0.4800 /
&OBST ID='New OBST.034' SURF_ID='INS'
      XB=-0.3600,-0.3000,-0.5100,0.5100,0.3300,0.4800 /
&OBST ID='New OBST.035' SURF_ID='INS'
      XB=-0.3000,-0.2400,-0.5400,0.5400,0.3300,0.4800 /
&OBST ID='New OBST.036' SURF_ID='INS'
      XB=-0.2400,-0.1500,-0.5700,0.5700,0.3300,0.4800 /
&OBST ID='New OBST.037' SURF_ID='INS'
      XB=-0.1500,0.1500,-0.6000,0.6000,0.3300,0.4800 /
&OBST ID='New OBST.038' SURF_ID='INS'
      XB=0.5700,0.6000,-0.1500,0.1500,0.3300,0.4800 /
&OBST ID='New OBST.039' SURF_ID='INS'
      XB=0.5400,0.5700,-0.2400,0.2400,0.3300,0.4800 /
&OBST ID='New OBST.040' SURF_ID='INS'
      XB=0.5100,0.5400,-0.3000,0.3000,0.3300,0.4800 /
&OBST ID='New OBST.041' SURF_ID='INS'
      XB=0.4800,0.5100,-0.3600,0.3600,0.3300,0.4800 /
&OBST ID='New OBST.042' SURF_ID='INS'
      XB=0.4500,0.4800,-0.3900,0.3900,0.3300,0.4800 /
&OBST ID='New OBST.043' SURF_ID='INS'
      XB=0.4200,0.4500,-0.4200,0.4200,0.3300,0.4800 /
&OBST ID='New OBST.044' SURF_ID='INS'
      XB=0.3900,0.4200,-0.4500,0.4500,0.3300,0.4800 /
&OBST ID='New OBST.045' SURF_ID='INS'
      XB=0.3600,0.3900,-0.4800,0.4800,0.3300,0.4800 /
&OBST ID='New OBST.046' SURF_ID='INS'
      XB=0.3000,0.3600,-0.5100,0.5100,0.3300,0.4800 /
&OBST ID='New OBST.047' SURF_ID='INS'
      XB=0.2400,0.3000,-0.5400,0.5400,0.3300,0.4800 /
&OBST ID='New OBST.048' SURF_ID='INS'
      XB=0.1500,0.2400,-0.5700,0.5700,0.3300,0.4800 /
&VENT ID='New VENT' SURF_ID='OPEN' MB='ZMIN' /
&VENT ID='New VENT.001' SURF_ID='OPEN' MB='XMIN' /
&VENT ID='New VENT.002' SURF_ID='OPEN' MB='YMIN' /
&VENT ID='New VENT.003' SURF_ID='OPEN' MB='XMAX' /
&VENT ID='New VENT.004' SURF_ID='OPEN' MB='YMAX' /
&VENT ID='New VENT.005' SURF_ID='FIRE'
      XB=-0.0900,-0.0600,-0.0600,0.0600,0.0000,0.0000 /
&VENT ID='New VENT.006' SURF_ID='FIRE'
      XB=-0.0600,0.0600,-0.0900,0.0900,0.0000,0.0000 /
&VENT ID='New VENT.007' SURF_ID='FIRE'
      XB=0.0600,0.0900,-0.0600,0.0600,0.0000,0.0000 /

-- Blender Collection: <New Output>
&DEVC ID='CO EXHAUST' QUANTITY='CONTROL VALUE' XYZ=0.0000,0.0000,0.0000
      CTRL_ID='CO AVERAGE' /
&DEVC ID='CO-0' QUANTITY='MASS FRACTION' XYZ=0.0000,0.5030,0.3375
      SPEC_ID='CARBON MONOXIDE' OUTPUT=F /
&DEVC ID='CO-10' QUANTITY='MASS FRACTION' XYZ=0.0870,0.4950,0.3375
      SPEC_ID='CARBON MONOXIDE' OUTPUT=F /
&DEVC ID='CO-100' QUANTITY='MASS FRACTION' XYZ=0.4950,-0.0870,0.3375
      SPEC_ID='CARBON MONOXIDE' OUTPUT=F /
&DEVC ID='CO-110' QUANTITY='MASS FRACTION' XYZ=0.4720,-0.1720,0.3375
      SPEC_ID='CARBON MONOXIDE' OUTPUT=F /
&DEVC ID='CO-120' QUANTITY='MASS FRACTION' XYZ=0.4350,-0.2510,0.3375
      SPEC_ID='CARBON MONOXIDE' OUTPUT=F /
&DEVC ID='CO-130' QUANTITY='MASS FRACTION' XYZ=0.3850,-0.3230,0.3375
      SPEC_ID='CARBON MONOXIDE' OUTPUT=F /
&DEVC ID='CO-140' QUANTITY='MASS FRACTION' XYZ=0.3230,-0.3850,0.3375
      SPEC_ID='CARBON MONOXIDE' OUTPUT=F /
&DEVC ID='CO-150' QUANTITY='MASS FRACTION' XYZ=0.2510,-0.4350,0.3375
      SPEC_ID='CARBON MONOXIDE' OUTPUT=F /
&DEVC ID='CO-160' QUANTITY='MASS FRACTION' XYZ=0.1720,-0.4720,0.3375
      SPEC_ID='CARBON MONOXIDE' OUTPUT=F /
&DEVC ID='CO-170' QUANTITY='MASS FRACTION' XYZ=0.0870,-0.4950,0.3375
      SPEC_ID='CARBON MONOXIDE' OUTPUT=F /
&DEVC ID='CO-180' QUANTITY='MASS FRACTION' XYZ=0.0000,-0.5030,0.3375
      SPEC_ID='CARBON MONOXIDE' OUTPUT=F /
&DEVC ID='CO-190' QUANTITY='MASS FRACTION' XYZ=-0.0870,-0.4950,0.3375
      SPEC_ID='CARBON MONOXIDE' OUTPUT=F /
&DEVC ID='CO-20' QUANTITY='MASS FRACTION' XYZ=0.1720,0.4720,0.3375
      SPEC_ID='CARBON MONOXIDE' OUTPUT=F /
&DEVC ID='CO-200' QUANTITY='MASS FRACTION' XYZ=-0.1720,-0.4720,0.3375
      SPEC_ID='CARBON MONOXIDE' OUTPUT=F /
&DEVC ID='CO-210' QUANTITY='MASS FRACTION' XYZ=-0.2510,-0.4350,0.3375
      SPEC_ID='CARBON MONOXIDE' OUTPUT=F /
&DEVC ID='CO-220' QUANTITY='MASS FRACTION' XYZ=-0.3230,-0.3850,0.3375
      SPEC_ID='CARBON MONOXIDE' OUTPUT=F /
&DEVC ID='CO-230' QUANTITY='MASS FRACTION' XYZ=-0.3850,-0.3230,0.3375
      SPEC_ID='CARBON MONOXIDE' OUTPUT=F /
&DEVC ID='CO-240' QUANTITY='MASS FRACTION' XYZ=-0.4350,-0.2510,0.3375
      SPEC_ID='CARBON MONOXIDE' OUTPUT=F /
&DEVC ID='CO-250' QUANTITY='MASS FRACTION' XYZ=-0.4720,-0.1720,0.3375
      SPEC_ID='CARBON MONOXIDE' OUTPUT=F /
&DEVC ID='CO-260' QUANTITY='MASS FRACTION' XYZ=-0.4950,-0.0870,0.3375
      SPEC_ID='CARBON MONOXIDE' OUTPUT=F /
&DEVC ID='CO-270' QUANTITY='MASS FRACTION' XYZ=-0.5030,0.0000,0.3375
      SPEC_ID='CARBON MONOXIDE' OUTPUT=F /
&DEVC ID='CO-280' QUANTITY='MASS FRACTION' XYZ=-0.4950,0.0870,0.3375
      SPEC_ID='CARBON MONOXIDE' OUTPUT=F /
&DEVC ID='CO-290' QUANTITY='MASS FRACTION' XYZ=-0.4720,0.1720,0.3375
      SPEC_ID='CARBON MONOXIDE' OUTPUT=F /
&DEVC ID='CO-30' QUANTITY='MASS FRACTION' XYZ=0.2510,0.4350,0.3375
      SPEC_ID='CARBON MONOXIDE' OUTPUT=F /
&DEVC ID='CO-300' QUANTITY='MASS FRACTION' XYZ=-0.4350,0.2510,0.3375
      SPEC_ID='CARBON MONOXIDE' OUTPUT=F /
&DEVC ID='CO-310' QUANTITY='MASS FRACTION' XYZ=-0.3850,0.3230,0.3375
      SPEC_ID='CARBON MONOXIDE' OUTPUT=F /
&DEVC ID='CO-320' QUANTITY='MASS FRACTION' XYZ=-0.3230,0.3850,0.3375
      SPEC_ID='CARBON MONOXIDE' OUTPUT=F /
&DEVC ID='CO-330' QUANTITY='MASS FRACTION' XYZ=-0.2510,0.4350,0.3375
      SPEC_ID='CARBON MONOXIDE' OUTPUT=F /
&DEVC ID='CO-340' QUANTITY='MASS FRACTION' XYZ=-0.1720,0.4720,0.3375
      SPEC_ID='CARBON MONOXIDE' OUTPUT=F /
&DEVC ID='CO-350' QUANTITY='MASS FRACTION' XYZ=-0.0870,0.4950,0.3375
      SPEC_ID='CARBON MONOXIDE' OUTPUT=F /
&DEVC ID='CO-40' QUANTITY='MASS FRACTION' XYZ=0.3230,0.3850,0.3375
      SPEC_ID='CARBON MONOXIDE' OUTPUT=F /
&DEVC ID='CO-50' QUANTITY='MASS FRACTION' XYZ=0.3850,0.3230,0.3375
      SPEC_ID='CARBON MONOXIDE' OUTPUT=F /
&DEVC ID='CO-60' QUANTITY='MASS FRACTION' XYZ=0.4350,0.2510,0.3375
      SPEC_ID='CARBON MONOXIDE' OUTPUT=F /
&DEVC ID='CO-70' QUANTITY='MASS FRACTION' XYZ=0.4720,0.1720,0.3375
      SPEC_ID='CARBON MONOXIDE' OUTPUT=F /
&DEVC ID='CO-80' QUANTITY='MASS FRACTION' XYZ=0.4950,0.0870,0.3375
      SPEC_ID='CARBON MONOXIDE' OUTPUT=F /
&DEVC ID='CO-90' QUANTITY='MASS FRACTION' XYZ=0.5030,0.0000,0.3375
      SPEC_ID='CARBON MONOXIDE' OUTPUT=F /
&DEVC ID='CO2 EXHAUST' QUANTITY='CONTROL VALUE' XYZ=0.0000,0.0000,0.0000
      CTRL_ID='CO2 AVERAGE' /
&DEVC ID='CO2-0' QUANTITY='MASS FRACTION' XYZ=0.0000,0.5030,0.3375
      SPEC_ID='CARBON DIOXIDE' OUTPUT=F /
&DEVC ID='CO2-10' QUANTITY='MASS FRACTION' XYZ=0.0870,0.4950,0.3375
      SPEC_ID='CARBON DIOXIDE' OUTPUT=F /
&DEVC ID='CO2-100' QUANTITY='MASS FRACTION' XYZ=0.4950,-0.0870,0.3375
      SPEC_ID='CARBON DIOXIDE' OUTPUT=F /
&DEVC ID='CO2-110' QUANTITY='MASS FRACTION' XYZ=0.4720,-0.1720,0.3375
      SPEC_ID='CARBON DIOXIDE' OUTPUT=F /
&DEVC ID='CO2-120' QUANTITY='MASS FRACTION' XYZ=0.4350,-0.2510,0.3375
      SPEC_ID='CARBON DIOXIDE' OUTPUT=F /
&DEVC ID='CO2-130' QUANTITY='MASS FRACTION' XYZ=0.3850,-0.3230,0.3375
      SPEC_ID='CARBON DIOXIDE' OUTPUT=F /
&DEVC ID='CO2-140' QUANTITY='MASS FRACTION' XYZ=0.3230,-0.3850,0.3375
      SPEC_ID='CARBON DIOXIDE' OUTPUT=F /
&DEVC ID='CO2-150' QUANTITY='MASS FRACTION' XYZ=0.2510,-0.4350,0.3375
      SPEC_ID='CARBON DIOXIDE' OUTPUT=F /
&DEVC ID='CO2-160' QUANTITY='MASS FRACTION' XYZ=0.1720,-0.4720,0.3375
      SPEC_ID='CARBON DIOXIDE' OUTPUT=F /
&DEVC ID='CO2-170' QUANTITY='MASS FRACTION' XYZ=0.0870,-0.4950,0.3375
      SPEC_ID='CARBON DIOXIDE' OUTPUT=F /
&DEVC ID='CO2-180' QUANTITY='MASS FRACTION' XYZ=0.0000,-0.5030,0.3375
      SPEC_ID='CARBON DIOXIDE' OUTPUT=F /
&DEVC ID='CO2-190' QUANTITY='MASS FRACTION' XYZ=-0.0870,-0.4950,0.3375
      SPEC_ID='CARBON DIOXIDE' OUTPUT=F /
&DEVC ID='CO2-20' QUANTITY='MASS FRACTION' XYZ=0.1720,0.4720,0.3375
      SPEC_ID='CARBON DIOXIDE' OUTPUT=F /
&DEVC ID='CO2-200' QUANTITY='MASS FRACTION' XYZ=-0.1720,-0.4720,0.3375
      SPEC_ID='CARBON DIOXIDE' OUTPUT=F /
&DEVC ID='CO2-210' QUANTITY='MASS FRACTION' XYZ=-0.2510,-0.4350,0.3375
      SPEC_ID='CARBON DIOXIDE' OUTPUT=F /
&DEVC ID='CO2-220' QUANTITY='MASS FRACTION' XYZ=-0.3230,-0.3850,0.3375
      SPEC_ID='CARBON DIOXIDE' OUTPUT=F /
&DEVC ID='CO2-230' QUANTITY='MASS FRACTION' XYZ=-0.3850,-0.3230,0.3375
      SPEC_ID='CARBON DIOXIDE' OUTPUT=F /
&DEVC ID='CO2-240' QUANTITY='MASS FRACTION' XYZ=-0.4350,-0.2510,0.3375
      SPEC_ID='CARBON DIOXIDE' OUTPUT=F /
&DEVC ID='CO2-250' QUANTITY='MASS FRACTION' XYZ=-0.4720,-0.1720,0.3375
      SPEC_ID='CARBON DIOXIDE' OUTPUT=F /
&DEVC ID='CO2-260' QUANTITY='MASS FRACTION' XYZ=-0.4950,-0.0870,0.3375
      SPEC_ID='CARBON DIOXIDE' OUTPUT=F /
&DEVC ID='CO2-270' QUANTITY='MASS FRACTION' XYZ=-0.5030,0.0000,0.3375
      SPEC_ID='CARBON DIOXIDE' OUTPUT=F /
&DEVC ID='CO2-280' QUANTITY='MASS FRACTION' XYZ=-0.4950,0.0870,0.3375
      SPEC_ID='CARBON DIOXIDE' OUTPUT=F /
&DEVC ID='CO2-290' QUANTITY='MASS FRACTION' XYZ=-0.4720,0.1720,0.3375
      SPEC_ID='CARBON DIOXIDE' OUTPUT=F /
&DEVC ID='CO2-30' QUANTITY='MASS FRACTION' XYZ=0.2510,0.4350,0.3375
      SPEC_ID='CARBON DIOXIDE' OUTPUT=F /
&DEVC ID='CO2-300' QUANTITY='MASS FRACTION' XYZ=-0.4350,0.2510,0.3375
      SPEC_ID='CARBON DIOXIDE' OUTPUT=F /
&DEVC ID='CO2-310' QUANTITY='MASS FRACTION' XYZ=-0.3850,0.3230,0.3375
      SPEC_ID='CARBON DIOXIDE' OUTPUT=F /
&DEVC ID='CO2-320' QUANTITY='MASS FRACTION' XYZ=-0.3230,0.3850,0.3375
      SPEC_ID='CARBON DIOXIDE' OUTPUT=F /
&DEVC ID='CO2-330' QUANTITY='MASS FRACTION' XYZ=-0.2510,0.4350,0.3375
      SPEC_ID='CARBON DIOXIDE' OUTPUT=F /
&DEVC ID='CO2-340' QUANTITY='MASS FRACTION' XYZ=-0.1720,0.4720,0.3375
      SPEC_ID='CARBON DIOXIDE' OUTPUT=F /
&DEVC ID='CO2-350' QUANTITY='MASS FRACTION' XYZ=-0.0870,0.4950,0.3375
      SPEC_ID='CARBON DIOXIDE' OUTPUT=F /
&DEVC ID='CO2-40' QUANTITY='MASS FRACTION' XYZ=0.3230,0.3850,0.3375
      SPEC_ID='CARBON DIOXIDE' OUTPUT=F /
&DEVC ID='CO2-50' QUANTITY='MASS FRACTION' XYZ=0.3850,0.3230,0.3375
      SPEC_ID='CARBON DIOXIDE' OUTPUT=F /
&DEVC ID='CO2-60' QUANTITY='MASS FRACTION' XYZ=0.4350,0.2510,0.3375
      SPEC_ID='CARBON DIOXIDE' OUTPUT=F /
&DEVC ID='CO2-70' QUANTITY='MASS FRACTION' XYZ=0.4720,0.1720,0.3375
      SPEC_ID='CARBON DIOXIDE' OUTPUT=F /
&DEVC ID='CO2-80' QUANTITY='MASS FRACTION' XYZ=0.4950,0.0870,0.3375
      SPEC_ID='CARBON DIOXIDE' OUTPUT=F /
&DEVC ID='CO2-90' QUANTITY='MASS FRACTION' XYZ=0.5030,0.0000,0.3375
      SPEC_ID='CARBON DIOXIDE' OUTPUT=F /
&DEVC ID='FUEL EXHAUST' QUANTITY='CONTROL VALUE' XYZ=0.0000,0.0000,0.0000
      CTRL_ID='FUEL AVERAGE' /
&DEVC ID='FUEL-0' QUANTITY='MASS FRACTION' XYZ=0.0000,0.5030,0.3375
      SPEC_ID='PROPANE' OUTPUT=F /
&DEVC ID='FUEL-10' QUANTITY='MASS FRACTION' XYZ=0.0870,0.4950,0.3375
      SPEC_ID='PROPANE' OUTPUT=F /
&DEVC ID='FUEL-100' QUANTITY='MASS FRACTION' XYZ=0.4950,-0.0870,0.3375
      SPEC_ID='PROPANE' OUTPUT=F /
&DEVC ID='FUEL-110' QUANTITY='MASS FRACTION' XYZ=0.4720,-0.1720,0.3375
      SPEC_ID='PROPANE' OUTPUT=F /
&DEVC ID='FUEL-120' QUANTITY='MASS FRACTION' XYZ=0.4350,-0.2510,0.3375
      SPEC_ID='PROPANE' OUTPUT=F /
&DEVC ID='FUEL-130' QUANTITY='MASS FRACTION' XYZ=0.3850,-0.3230,0.3375
      SPEC_ID='PROPANE' OUTPUT=F /
&DEVC ID='FUEL-140' QUANTITY='MASS FRACTION' XYZ=0.3230,-0.3850,0.3375
      SPEC_ID='PROPANE' OUTPUT=F /
&DEVC ID='FUEL-150' QUANTITY='MASS FRACTION' XYZ=0.2510,-0.4350,0.3375
      SPEC_ID='PROPANE' OUTPUT=F /
&DEVC ID='FUEL-160' QUANTITY='MASS FRACTION' XYZ=0.1720,-0.4720,0.3375
      SPEC_ID='PROPANE' OUTPUT=F /
&DEVC ID='FUEL-170' QUANTITY='MASS FRACTION' XYZ=0.0870,-0.4950,0.3375
      SPEC_ID='PROPANE' OUTPUT=F /
&DEVC ID='FUEL-180' QUANTITY='MASS FRACTION' XYZ=0.0000,-0.5030,0.3375
      SPEC_ID='PROPANE' OUTPUT=F /
&DEVC ID='FUEL-190' QUANTITY='MASS FRACTION' XYZ=-0.0870,-0.4950,0.3375
      SPEC_ID='PROPANE' OUTPUT=F /
&DEVC ID='FUEL-20' QUANTITY='MASS FRACTION' XYZ=0.1720,0.4720,0.3375
      SPEC_ID='PROPANE' OUTPUT=F /
&DEVC ID='FUEL-200' QUANTITY='MASS FRACTION' XYZ=-0.1720,-0.4720,0.3375
      SPEC_ID='PROPANE' OUTPUT=F /
&DEVC ID='FUEL-210' QUANTITY='MASS FRACTION' XYZ=-0.2510,-0.4350,0.3375
      SPEC_ID='PROPANE' OUTPUT=F /
&DEVC ID='FUEL-220' QUANTITY='MASS FRACTION' XYZ=-0.3230,-0.3850,0.3375
      SPEC_ID='PROPANE' OUTPUT=F /
&DEVC ID='FUEL-230' QUANTITY='MASS FRACTION' XYZ=-0.3850,-0.3230,0.3375
      SPEC_ID='PROPANE' OUTPUT=F /
&DEVC ID='FUEL-240' QUANTITY='MASS FRACTION' XYZ=-0.4350,-0.2510,0.3375
      SPEC_ID='PROPANE' OUTPUT=F /
&DEVC ID='FUEL-250' QUANTITY='MASS FRACTION' XYZ=-0.4720,-0.1720,0.3375
      SPEC_ID='PROPANE' OUTPUT=F /
&DEVC ID='FUEL-260' QUANTITY='MASS FRACTION' XYZ=-0.4950,-0.0870,0.3375
      SPEC_ID='PROPANE' OUTPUT=F /
&DEVC ID='FUEL-270' QUANTITY='MASS FRACTION' XYZ=-0.5030,0.0000,0.3375
      SPEC_ID='PROPANE' OUTPUT=F /
&DEVC ID='FUEL-280' QUANTITY='MASS FRACTION' XYZ=-0.4950,0.0870,0.3375
      SPEC_ID='PROPANE' OUTPUT=F /
&DEVC ID='FUEL-290' QUANTITY='MASS FRACTION' XYZ=-0.4720,0.1720,0.3375
      SPEC_ID='PROPANE' OUTPUT=F /
&DEVC ID='FUEL-30' QUANTITY='MASS FRACTION' XYZ=0.2510,0.4350,0.3375
      SPEC_ID='PROPANE' OUTPUT=F /
&DEVC ID='FUEL-300' QUANTITY='MASS FRACTION' XYZ=-0.4350,0.2510,0.3375
      SPEC_ID='PROPANE' OUTPUT=F /
&DEVC ID='FUEL-310' QUANTITY='MASS FRACTION' XYZ=-0.3850,0.3230,0.3375
      SPEC_ID='PROPANE' OUTPUT=F /
&DEVC ID='FUEL-320' QUANTITY='MASS FRACTION' XYZ=-0.3230,0.3850,0.3375
      SPEC_ID='PROPANE' OUTPUT=F /
&DEVC ID='FUEL-330' QUANTITY='MASS FRACTION' XYZ=-0.2510,0.4350,0.3375
      SPEC_ID='PROPANE' OUTPUT=F /
&DEVC ID='FUEL-340' QUANTITY='MASS FRACTION' XYZ=-0.1720,0.4720,0.3375
      SPEC_ID='PROPANE' OUTPUT=F /
&DEVC ID='FUEL-350' QUANTITY='MASS FRACTION' XYZ=-0.0870,0.4950,0.3375
      SPEC_ID='PROPANE' OUTPUT=F /
&DEVC ID='FUEL-40' QUANTITY='MASS FRACTION' XYZ=0.3230,0.3850,0.3375
      SPEC_ID='PROPANE' OUTPUT=F /
&DEVC ID='FUEL-50' QUANTITY='MASS FRACTION' XYZ=0.3850,0.3230,0.3375
      SPEC_ID='PROPANE' OUTPUT=F /
&DEVC ID='FUEL-60' QUANTITY='MASS FRACTION' XYZ=0.4350,0.2510,0.3375
      SPEC_ID='PROPANE' OUTPUT=F /
&DEVC ID='FUEL-70' QUANTITY='MASS FRACTION' XYZ=0.4720,0.1720,0.3375
      SPEC_ID='PROPANE' OUTPUT=F /
&DEVC ID='FUEL-80' QUANTITY='MASS FRACTION' XYZ=0.4950,0.0870,0.3375
      SPEC_ID='PROPANE' OUTPUT=F /
&DEVC ID='FUEL-90' QUANTITY='MASS FRACTION' XYZ=0.5030,0.0000,0.3375
      SPEC_ID='PROPANE' OUTPUT=F /
&DEVC ID='H2O EXHAUST' QUANTITY='CONTROL VALUE' XYZ=0.0000,0.0000,0.0000
      CTRL_ID='H2O AVERAGE' /
&DEVC ID='H2O-0' QUANTITY='MASS FRACTION' XYZ=0.0000,0.5030,0.3375
      SPEC_ID='WATER VAPOR' OUTPUT=F /
&DEVC ID='H2O-10' QUANTITY='MASS FRACTION' XYZ=0.0870,0.4950,0.3375
      SPEC_ID='WATER VAPOR' OUTPUT=F /
&DEVC ID='H2O-100' QUANTITY='MASS FRACTION' XYZ=0.4950,-0.0870,0.3375
      SPEC_ID='WATER VAPOR' OUTPUT=F /
&DEVC ID='H2O-110' QUANTITY='MASS FRACTION' XYZ=0.4720,-0.1720,0.3375
      SPEC_ID='WATER VAPOR' OUTPUT=F /
&DEVC ID='H2O-120' QUANTITY='MASS FRACTION' XYZ=0.4350,-0.2510,0.3375
      SPEC_ID='WATER VAPOR' OUTPUT=F /
&DEVC ID='H2O-130' QUANTITY='MASS FRACTION' XYZ=0.3850,-0.3230,0.3375
      SPEC_ID='WATER VAPOR' OUTPUT=F /
&DEVC ID='H2O-140' QUANTITY='MASS FRACTION' XYZ=0.3230,-0.3850,0.3375
      SPEC_ID='WATER VAPOR' OUTPUT=F /
&DEVC ID='H2O-150' QUANTITY='MASS FRACTION' XYZ=0.2510,-0.4350,0.3375
      SPEC_ID='WATER VAPOR' OUTPUT=F /
&DEVC ID='H2O-160' QUANTITY='MASS FRACTION' XYZ=0.1720,-0.4720,0.3375
      SPEC_ID='WATER VAPOR' OUTPUT=F /
&DEVC ID='H2O-170' QUANTITY='MASS FRACTION' XYZ=0.0870,-0.4950,0.3375
      SPEC_ID='WATER VAPOR' OUTPUT=F /
&DEVC ID='H2O-180' QUANTITY='MASS FRACTION' XYZ=0.0000,-0.5030,0.3375
      SPEC_ID='WATER VAPOR' OUTPUT=F /
&DEVC ID='H2O-190' QUANTITY='MASS FRACTION' XYZ=-0.0870,-0.4950,0.3375
      SPEC_ID='WATER VAPOR' OUTPUT=F /
&DEVC ID='H2O-20' QUANTITY='MASS FRACTION' XYZ=0.1720,0.4720,0.3375
      SPEC_ID='WATER VAPOR' OUTPUT=F /
&DEVC ID='H2O-200' QUANTITY='MASS FRACTION' XYZ=-0.1720,-0.4720,0.3375
      SPEC_ID='WATER VAPOR' OUTPUT=F /
&DEVC ID='H2O-210' QUANTITY='MASS FRACTION' XYZ=-0.2510,-0.4350,0.3375
      SPEC_ID='WATER VAPOR' OUTPUT=F /
&DEVC ID='H2O-220' QUANTITY='MASS FRACTION' XYZ=-0.3230,-0.3850,0.3375
      SPEC_ID='WATER VAPOR' OUTPUT=F /
&DEVC ID='H2O-230' QUANTITY='MASS FRACTION' XYZ=-0.3850,-0.3230,0.3375
      SPEC_ID='WATER VAPOR' OUTPUT=F /
&DEVC ID='H2O-240' QUANTITY='MASS FRACTION' XYZ=-0.4350,-0.2510,0.3375
      SPEC_ID='WATER VAPOR' OUTPUT=F /
&DEVC ID='H2O-250' QUANTITY='MASS FRACTION' XYZ=-0.4720,-0.1720,0.3375
      SPEC_ID='WATER VAPOR' OUTPUT=F /
&DEVC ID='H2O-260' QUANTITY='MASS FRACTION' XYZ=-0.4950,-0.0870,0.3375
      SPEC_ID='WATER VAPOR' OUTPUT=F /
&DEVC ID='H2O-270' QUANTITY='MASS FRACTION' XYZ=-0.5030,0.0000,0.3375
      SPEC_ID='WATER VAPOR' OUTPUT=F /
&DEVC ID='H2O-280' QUANTITY='MASS FRACTION' XYZ=-0.4950,0.0870,0.3375
      SPEC_ID='WATER VAPOR' OUTPUT=F /
&DEVC ID='H2O-290' QUANTITY='MASS FRACTION' XYZ=-0.4720,0.1720,0.3375
      SPEC_ID='WATER VAPOR' OUTPUT=F /
&DEVC ID='H2O-30' QUANTITY='MASS FRACTION' XYZ=0.2510,0.4350,0.3375
      SPEC_ID='WATER VAPOR' OUTPUT=F /
&DEVC ID='H2O-300' QUANTITY='MASS FRACTION' XYZ=-0.4350,0.2510,0.3375
      SPEC_ID='WATER VAPOR' OUTPUT=F /
&DEVC ID='H2O-310' QUANTITY='MASS FRACTION' XYZ=-0.3850,0.3230,0.3375
      SPEC_ID='WATER VAPOR' OUTPUT=F /
&DEVC ID='H2O-320' QUANTITY='MASS FRACTION' XYZ=-0.3230,0.3850,0.3375
      SPEC_ID='WATER VAPOR' OUTPUT=F /
&DEVC ID='H2O-330' QUANTITY='MASS FRACTION' XYZ=-0.2510,0.4350,0.3375
      SPEC_ID='WATER VAPOR' OUTPUT=F /
&DEVC ID='H2O-340' QUANTITY='MASS FRACTION' XYZ=-0.1720,0.4720,0.3375
      SPEC_ID='WATER VAPOR' OUTPUT=F /
&DEVC ID='H2O-350' QUANTITY='MASS FRACTION' XYZ=-0.0870,0.4950,0.3375
      SPEC_ID='WATER VAPOR' OUTPUT=F /
&DEVC ID='H2O-40' QUANTITY='MASS FRACTION' XYZ=0.3230,0.3850,0.3375
      SPEC_ID='WATER VAPOR' OUTPUT=F /
&DEVC ID='H2O-50' QUANTITY='MASS FRACTION' XYZ=0.3850,0.3230,0.3375
      SPEC_ID='WATER VAPOR' OUTPUT=F /
&DEVC ID='H2O-60' QUANTITY='MASS FRACTION' XYZ=0.4350,0.2510,0.3375
      SPEC_ID='WATER VAPOR' OUTPUT=F /
&DEVC ID='H2O-70' QUANTITY='MASS FRACTION' XYZ=0.4720,0.1720,0.3375
      SPEC_ID='WATER VAPOR' OUTPUT=F /
&DEVC ID='H2O-80' QUANTITY='MASS FRACTION' XYZ=0.4950,0.0870,0.3375
      SPEC_ID='WATER VAPOR' OUTPUT=F /
&DEVC ID='H2O-90' QUANTITY='MASS FRACTION' XYZ=0.5030,0.0000,0.3375
      SPEC_ID='WATER VAPOR' OUTPUT=F /
&SLCF ID='New SLCF' QUANTITY='TEMPERATURE' CELL_CENTERED=T PBY=0.0000 /
&SLCF ID='New SLCF.001' QUANTITY='HRRPUV' CELL_CENTERED=T PBY=0.0000 /
&SLCF ID='New SLCF.002' QUANTITY='MASS FRACTION' CELL_CENTERED=T PBY=0.0000
      SPEC_ID='PROPANE' /
&SLCF ID='New SLCF.003' QUANTITY='MASS FRACTION' CELL_CENTERED=T PBY=0.0000
      SPEC_ID='OXYGEN' /
&SLCF ID='New SLCF.004' QUANTITY='MASS FRACTION' CELL_CENTERED=T PBY=0.0000
      SPEC_ID='CARBON DIOXIDE' /