! Generated by BlenderFDS 6.0.0 on Blender 3.2.0 Beta
! Date: Fri, 13 May 2022, 07:18:18
! File: ···erfds.verification/tests/op_align_MESHes_export/bl/align_meshes.blend
--- Case from Blender Scene: <align_refinement> | View Layer: <View Layer>
&HEAD CHID='align_refinement' /
&TIME T_END=1.0 /

--- Geometric namelists from Blender Collections

--- Blender Collection: <Collection.002>
MESH Qty: 8 | Splits: 8 | Multiples: 1
Cell Qty: 1728 (~216 each)
Size: 0.333 · 0.333 · 0.333m | Aspect: 1.0 | Poisson: Yes
&MESH ID='Domain.002_s0' IJK=6,6,6 XB=0.0000,2.0000,0.0000,2.0000,0.0000,2.0000 /
&MESH ID='Domain.002_s1' IJK=6,6,6 XB=0.0000,2.0000,0.0000,2.0000,2.0000,4.0000 /
&MESH ID='Domain.002_s2' IJK=6,6,6 XB=0.0000,2.0000,2.0000,4.0000,0.0000,2.0000 /
&MESH ID='Domain.002_s3' IJK=6,6,6 XB=0.0000,2.0000,2.0000,4.0000,2.0000,4.0000 /
&MESH ID='Domain.002_s4' IJK=6,6,6 XB=2.0000,4.0000,0.0000,2.0000,0.0000,2.0000 /
&MESH ID='Domain.002_s5' IJK=6,6,6 XB=2.0000,4.0000,0.0000,2.0000,2.0000,4.0000 /
&MESH ID='Domain.002_s6' IJK=6,6,6 XB=2.0000,4.0000,2.0000,4.0000,0.0000,2.0000 /
&MESH ID='Domain.002_s7' IJK=6,6,6 XB=2.0000,4.0000,2.0000,4.0000,2.0000,4.0000 /
MESH Qty: 1 | Splits: 1 | Multiples: 1
Cell Qty: 216 (~216 each)
Size: 0.714 · 0.667 · 0.667m | Aspect: 1.1 | Poisson: Yes
&MESH ID='Domain_x.002' IJK=6,6,6 XB=4.0000,8.2841,0.0000,4.0000,0.0000,4.0000 /
MESH Qty: 1 | Splits: 1 | Multiples: 1
Cell Qty: 216 (~216 each)
Size: 0.689 · 0.667 · 0.667m | Aspect: 1.0 | Poisson: Yes
&MESH ID='Domain_x.003' IJK=6,6,6 XB=-4.1331,0.0000,0.0000,4.0000,0.0000,4.0000 /
MESH Qty: 1 | Splits: 1 | Multiples: 1
Cell Qty: 216 (~216 each)
Size: 0.667 · 0.716 · 0.667m | Aspect: 1.1 | Poisson: Yes
&MESH ID='Domain_y.002' IJK=6,6,6 XB=0.0000,4.0000,4.0000,8.2965,0.0000,4.0000 /
MESH Qty: 1 | Splits: 1 | Multiples: 1
Cell Qty: 216 (~216 each)
Size: 0.667 · 0.686 · 0.667m | Aspect: 1.0 | Poisson: Yes
&MESH ID='Domain_y.003' IJK=6,6,6 XB=0.0000,4.0000,-4.1171,0.0000,0.0000,4.0000 /
MESH Qty: 1 | Splits: 1 | Multiples: 1
Cell Qty: 216 (~216 each)
Size: 0.667 · 0.667 · 0.712m | Aspect: 1.1 | Poisson: Yes
&MESH ID='Domain_z.002' IJK=6,6,6 XB=0.0000,4.0000,0.0000,4.0000,4.0000,8.2690 /
MESH Qty: 1 | Splits: 1 | Multiples: 1
Cell Qty: 216 (~216 each)
Size: 0.667 · 0.667 · 0.717m | Aspect: 1.1 | Poisson: Yes
&MESH ID='Domain_z.003' IJK=6,6,6 XB=0.0000,4.0000,0.0000,4.0000,-4.3041,0.0000 /

&TAIL /
