!!! Generated by BlenderFDS 6.0.0 on Blender 3.0.0
!!! Date: <mer, 16 feb 2022, 09:16:16>
!!! File: <···erification/tests/test_align_meshes/bl/align_meshes.blend>
! --- Case from Blender Scene <align_refinement> and View Layer <View Layer>
&HEAD CHID='align_refinement' /
&TIME T_END=1.0 /

! --- Geometric namelists from Blender Collections

! --- Collection.002
! MESH Cell Qty: 216 · 8 splits
! Cell Size: 0.333m · 0.333m · 0.333m | Aspect: 1.0 | Poisson: Yes
&MESH ID='Domain.002_0' IJK=6,6,6
      XB=0.000000,2.000000,0.000000,2.000000,0.000000,2.000000 /
&MESH ID='Domain.002_1' IJK=6,6,6
      XB=0.000000,2.000000,0.000000,2.000000,2.000000,4.000000 /
&MESH ID='Domain.002_2' IJK=6,6,6
      XB=0.000000,2.000000,2.000000,4.000000,0.000000,2.000000 /
&MESH ID='Domain.002_3' IJK=6,6,6
      XB=0.000000,2.000000,2.000000,4.000000,2.000000,4.000000 /
&MESH ID='Domain.002_4' IJK=6,6,6
      XB=2.000000,4.000000,0.000000,2.000000,0.000000,2.000000 /
&MESH ID='Domain.002_5' IJK=6,6,6
      XB=2.000000,4.000000,0.000000,2.000000,2.000000,4.000000 /
&MESH ID='Domain.002_6' IJK=6,6,6
      XB=2.000000,4.000000,2.000000,4.000000,0.000000,2.000000 /
&MESH ID='Domain.002_7' IJK=6,6,6
      XB=2.000000,4.000000,2.000000,4.000000,2.000000,4.000000 /
! MESH Cell Qty: 216
! Cell Size: 0.714m · 0.667m · 0.667m | Aspect: 1.1 | Poisson: Yes
&MESH ID='Domain_x.002' IJK=6,6,6
      XB=4.000000,8.284060,0.000000,4.000000,0.000000,4.000000 /
! MESH Cell Qty: 216
! Cell Size: 0.689m · 0.667m · 0.667m | Aspect: 1.0 | Poisson: Yes
&MESH ID='Domain_x.003' IJK=6,6,6
      XB=-4.133078,0.000000,0.000000,4.000000,0.000000,4.000000 /
! MESH Cell Qty: 216
! Cell Size: 0.667m · 0.716m · 0.667m | Aspect: 1.1 | Poisson: Yes
&MESH ID='Domain_y.002' IJK=6,6,6
      XB=0.000000,4.000000,4.000000,8.296534,0.000000,4.000000 /
! MESH Cell Qty: 216
! Cell Size: 0.667m · 0.686m · 0.667m | Aspect: 1.0 | Poisson: Yes
&MESH ID='Domain_y.003' IJK=6,6,6
      XB=0.000000,4.000000,-4.117112,0.000000,0.000000,4.000000 /
! MESH Cell Qty: 216
! Cell Size: 0.667m · 0.667m · 0.712m | Aspect: 1.1 | Poisson: Yes
&MESH ID='Domain_z.002' IJK=6,6,6
      XB=0.000000,4.000000,0.000000,4.000000,4.000000,8.269003 /
! MESH Cell Qty: 216
! Cell Size: 0.667m · 0.667m · 0.717m | Aspect: 1.1 | Poisson: Yes
&MESH ID='Domain_z.003' IJK=6,6,6
      XB=0.000000,4.000000,0.000000,4.000000,-4.304070,0.000000 /

&TAIL /
 