! Generated by BlenderFDS 6.0.0 on Blender 3.2.0 Beta
! Date: Sat, 21 May 2022, 08:21:00
! File: ···port/../../../firemodels/cad/NIST_Calibration_Burners/Two_Ports.blend

--- Case from Blender Scene: <Case> | View Layer: <RenderLayer>

&HEAD CHID='Case' /

--- Boundary conditions from Blender Materials

&SURF ID='Burner' RGB=204,0,0 HRRPUA=100.0 /
&SURF ID='Material' RGB=204,204,204 /

--- Computational domain | MPI Processes: 1 | MESH Qty: 1 | Cell Qty: 1000

-- MPI Process: <0> | MESH Qty: 1 | Cell Qty: 1000
Cell Qty: 1000 | Size: 0.005·0.011·0.030m | Aspect: 6.0 | Poisson: Yes
&MESH ID='Domain' IJK=10,10,10 XB=-0.0254,0.0254,-0.0571,0.0571,0.0000,0.3048
      MPI_PROCESS=0 /

--- Geometric namelists from Blender Collections

-- Blender Collection: <Collection 1>
Vertices: 1260 | Faces: 2508
&GEOM ID='Pipe' SURF_ID='Material','Burner' BINARY_FILE='Cylinder.005.bingeom' /

&TAIL /
