! Generated by BlenderFDS 6.0.0 on Blender 3.2.0 Beta
! Date: Sat, 21 May 2022, 13:46:50
! File: ···ds.verification/tests/geometries_export/./bl/xb_xyz_pb_geometry.blend

--- Case from Blender Scene: <xb_bbox_solid> | View Layer: <View Layer>

&HEAD CHID='xb_bbox_solid' TITLE='Test bbox on rotated, moved, and scaled solid' /
&TIME T_END=1.0 /

--- Computational domain | MPI Processes: 1 | MESH Qty: 1 | Cell Qty: 8000

-- MPI Process: <0> | MESH Qty: 1 | Cell Qty: 8000
Cell Qty: 8000 | Size: 0.100·0.100·0.100m | Aspect: 1.0 | Poisson: Yes
&MESH ID='Domain' IJK=20,20,20 XB=-1.0000,1.0000,-1.0000,1.0000,-1.0000,1.0000
      MPI_PROCESS=0 /

--- Geometric namelists from Blender Collections
&OBST ID='Cube_bbox' SURF_ID='INERT'
      XB=-0.2218,2.2218,-0.2425,2.2425,-1.6912,-0.3088 /

&TAIL /
