! Generated by BlenderFDS 6.0.0 on Blender 3.2.0 Beta
! Date: Fri, 13 May 2022, 16:04:17
! File: ···rfds.verification/tests/geometries_export/bl/xb_xyz_pb_geometry.blend
--- Case from Blender Scene: <xb_bbox_solid> | View Layer: <View Layer>
&HEAD CHID='xb_bbox_solid' TITLE='Test bbox on rotated, moved, and scaled solid' /
&TIME T_END=1.0 /

--- Geometric namelists from Blender Collections
&OBST ID='Cube_bbox' SURF_ID='INERT'
      XB=-0.2218,2.2218,-0.2425,2.2425,-1.6912,-0.3088 /
MESH Qty: 1 | Splits: 1 | Multiples: 1
Cell Qty: 8000 (~8000 each)
Size: 0.100 · 0.100 · 0.100m | Aspect: 1.0 | Poisson: Yes
&MESH ID='Domain' IJK=20,20,20 XB=-1.0000,1.0000,-1.0000,1.0000,-1.0000,1.0000 /

&TAIL /
