!!! Generated by BlenderFDS 6.0.0 on Blender 3.0.0
!!! Date: <lun, 10 gen 2022, 16:27:00>
!!! File: <...tests/blender_geometry_to_fds/bl/xb_xyz_pb_geometry.blend>
! --- Case from Blender Scene <xb_bbox_solid>
&HEAD CHID='xb_bbox_solid' TITLE='Test bbox on rotated, moved, and scaled solid' /
&TIME T_END=1.0 /
 
! --- Geometric namelists from Blender Collection <Scene Collection>
&OBST ID='Cube_bbox' SURF_ID='INERT'
      XB=-0.221799,2.221799,-0.242462,2.242462,-1.691190,-0.308810 /
! MESH Cell Qty: 8000
! Cell Size: 0.100m · 0.100m · 0.100m | Aspect: 1.0 | Poisson: Yes
&MESH ID='Domain' IJK=20,20,20
      XB=-1.000000,1.000000,-1.000000,1.000000,-1.000000,1.000000 /

&TAIL /
 