!!! Generated by BlenderFDS 6.0.0 on Blender 3.0.0
!!! Date: <mar, 11 gen 2022, 16:15:57>
!!! File: <...ification/tests/bf_geometry_to_fds/bl/geom_geometry.blend>
! --- Case from Blender Scene <geom_simple> and View Layer <View Layer>
&HEAD CHID='geom_simple' TITLE='Test simple geom' /
&TIME T_END=1.0 /

! --- Boundary conditions from Blender Materials
&SURF ID='Material_blue' RGB=0,16,204 /
&SURF ID='Material_red' RGB=255,0,0 /

! --- Geometric namelists from Blender Collections
! MESH Cell Qty: 8000
! Cell Size: 0.100m · 0.100m · 0.100m | Aspect: 1.0 | Poisson: Yes
&MESH ID='Domain' IJK=20,20,20
      XB=-1.000000,1.000000,-1.000000,1.000000,-1.000000,1.000000 /
! GEOM Vertices: 12 | Faces: 12
&GEOM ID='Tet' SURF_ID='INERT','Material_red','Material_blue'
      VERTS=0.000000,-0.500000,-0.500000,-0.500000,0.500000,-0.500000,0.500000,
        0.500000,-0.500000,0.000000,0.000000,0.500000
      FACES=4,2,1,1,2,3,1,1,1,3,4,3,3,2,4,2 /

&TAIL /
 