!!! Generated by BlenderFDS 6.0.0 on Blender 3.0.0
!!! Date: <mar, 11 gen 2022, 16:59:41>
!!! File: <...lenderfds.verification/tests/bf_mesh_to_fds/bl/MESH.blend>
! --- Case from Blender Scene <split_mesh> and View Layer <View Layer>
&HEAD CHID='split_mesh' TITLE='Testing splits' /
&TIME T_END=1.0 /

! --- Geometric namelists from Blender Collections

! --- Collection
! MESH Cell Qty: 180 · 12 splits
! Cell Size: 0.364m · 0.333m · 0.286m | Aspect: 1.3 | Poisson: No
&MESH FYI='Testing splits' ID='Domain_0' IJK=6,6,5
      XB=-1.500000,0.681818,-1.000000,1.000000,0.000000,1.428571 /
&MESH FYI='Testing splits' ID='Domain_1' IJK=6,6,5
      XB=-1.500000,0.681818,-1.000000,1.000000,1.428571,2.857143 /
&MESH FYI='Testing splits' ID='Domain_2' IJK=6,6,4
      XB=-1.500000,0.681818,-1.000000,1.000000,2.857143,4.000000 /
&MESH FYI='Testing splits' ID='Domain_3' IJK=6,6,5
      XB=-1.500000,0.681818,1.000000,3.000000,0.000000,1.428571 /
&MESH FYI='Testing splits' ID='Domain_4' IJK=6,6,5
      XB=-1.500000,0.681818,1.000000,3.000000,1.428571,2.857143 /
&MESH FYI='Testing splits' ID='Domain_5' IJK=6,6,4
      XB=-1.500000,0.681818,1.000000,3.000000,2.857143,4.000000 /
&MESH FYI='Testing splits' ID='Domain_6' IJK=5,6,5
      XB=0.681818,2.500000,-1.000000,1.000000,0.000000,1.428571 /
&MESH FYI='Testing splits' ID='Domain_7' IJK=5,6,5
      XB=0.681818,2.500000,-1.000000,1.000000,1.428571,2.857143 /
&MESH FYI='Testing splits' ID='Domain_8' IJK=5,6,4
      XB=0.681818,2.500000,-1.000000,1.000000,2.857143,4.000000 /
&MESH FYI='Testing splits' ID='Domain_9' IJK=5,6,5
      XB=0.681818,2.500000,1.000000,3.000000,0.000000,1.428571 /
&MESH FYI='Testing splits' ID='Domain_10' IJK=5,6,5
      XB=0.681818,2.500000,1.000000,3.000000,1.428571,2.857143 /
&MESH FYI='Testing splits' ID='Domain_11' IJK=5,6,4
      XB=0.681818,2.500000,1.000000,3.000000,2.857143,4.000000 /

&TAIL /
 