! Generated by BlenderFDS 6.0.0 on Blender 3.2.0 Beta
! Date: Sun, 05 Jun 2022, 22:24:23
! File: /tmp/tmpscelvm6t/thouse5.blend

--- Case from Blender Scene: <Example_case> | View Layer: <View Layer>

&HEAD CHID='Example_case' TITLE='This is an example case' /
&TIME T_END=10.0 /
&REAC FUEL='Example' FORMULA='C1H2O0.5' CO_YIELD=0.040 SOOT_YIELD=0.070
      HEAT_OF_COMBUSTION=20000.0 /

--- Free text from Blender Text: <Text>

Insert here other non-geometrical namelists
&BNDF QUANTITY='WALL TEMPERATURE' /
&BNDF QUANTITY='BURNING RATE' /

--- Boundary conditions from Blender Materials

&SURF ID='Burner bc' RGB=255,0,0 HRRPUA=500.000 TAU_Q=1.0 /
&SURF ID='Example bc' RGB=204,166,111 /

--- Computational domain | MPI Processes: 1 | MESH Qty: 1 | Cell Qty: 8000

-- MPI Process: <0> | MESH Qty: 1 | Cell Qty: 8000
Cell Qty: 8000 | Size: 0.200·0.200·0.200m | Aspect: 1.0 | Poisson: Yes
&MESH ID='Domain' IJK=20,20,20 XB=-2.0000,2.0000,-2.0000,2.0000,0.0000,4.0000
      MPI_PROCESS=0 /

--- Geometric namelists from Blender Collections

-- Blender Collection: <Domain>
PB* Planes: 5
&VENT ID='Domain bcs_0' PBX=-2.0000 SURF_ID='OPEN' /
&VENT ID='Domain bcs_1' PBX=2.0000 SURF_ID='OPEN' /
&VENT ID='Domain bcs_2' PBY=-2.0000 SURF_ID='OPEN' /
&VENT ID='Domain bcs_3' PBY=2.0000 SURF_ID='OPEN' /
&VENT ID='Domain bcs_4' PBZ=4.0000 SURF_ID='OPEN' /

-- Blender Collection: <Obstacles>
&VENT ID='Burner' SURF_ID='Burner bc'
      XB=-1.0000,1.0000,-1.0000,1.0000,2.0100,2.0100 /
&OBST ID='Cube' SURF_ID='Example bc'
      XB=-1.0000,1.0000,-1.0000,1.0000,0.0000,2.0000 /

-- Blender Collection: <Output>
&SLCF ID='Temp slice' QUANTITY='TEMPERATURE' VECTOR=T CELL_CENTERED=T PBX=0.0000 /

&TAIL /
