! Generated by BlenderFDS 6.0.0 on Blender 3.2.0 Beta
! Date: Wed, 25 May 2022, 12:07:39
! File: ···n/tests/op_set_suggested_cell_size/./bl/set_suggested_cell_size.blend

--- Case from Blender Scene: <Example_case> | View Layer: <View Layer>

&HEAD CHID='Example_case' TITLE='This is an example case' /
&TIME T_END=0.1 /
&REAC FUEL='Example' FORMULA='C1H2O0.5' CO_YIELD=0.040 SOOT_YIELD=0.070
      HEAT_OF_COMBUSTION=20000.0 /

--- Free text from Blender Text: <Text>

Insert here other non-geometrical namelists
&BNDF QUANTITY='WALL TEMPERATURE' /
&BNDF QUANTITY='BURNING RATE' /

-- Suggested cell size calculation
According to the NUREG 1824, US NRC (2007), given the max HRR: 2000.0 kW,
density: 1.204 kg/m³, Cp: 1.005 KJ/(kg·K), temperature: 20.0°C, gravity: 9.81 m/s²,
then the characteristic fire diameter D* is calculated as: 1.265 m
and the cell size range for D*/dx ratio between 4 and 16 is: 0.079 ÷ 0.316 m

--- Boundary conditions from Blender Materials

&SURF ID='Burner bc' RGB=255,0,0 HRRPUA=500.000 TAU_Q=1.0 HRRPUA=500.0 TAU_Q=1.0 /
&SURF ID='Example bc' RGB=204,166,111 /

--- Computational domain | MPI Processes: 1 | MESH Qty: 1 | Cell Qty: 32768

-- MPI Process: <0> | MESH Qty: 1 | Cell Qty: 32768
Cell Qty: 32768 | Size: 0.125·0.125·0.125m | Aspect: 1.0 | Poisson: Yes
&MESH ID='Domain' IJK=32,32,32 XB=-2.0000,2.0000,-2.0000,2.0000,0.0000,4.0000
      MPI_PROCESS=0 /

--- Geometric namelists from Blender Collections

-- Blender Collection: <Domain>
PB* Planes: 5
&VENT ID='Domain bcs_0' PBX=-2.0000 SURF_ID='OPEN' /
&VENT ID='Domain bcs_1' PBX=2.0000 SURF_ID='OPEN' /
&VENT ID='Domain bcs_2' PBY=-2.0000 SURF_ID='OPEN' /
&VENT ID='Domain bcs_3' PBY=2.0000 SURF_ID='OPEN' /
&VENT ID='Domain bcs_4' PBZ=4.0000 SURF_ID='OPEN' /

-- Blender Collection: <Obstacles>
&VENT ID='Burner' SURF_ID='Burner bc'
      XB=-1.0000,1.0000,-1.0000,1.0000,2.0100,2.0100 /
&OBST ID='Cube' SURF_ID='Example bc'
      XB=-1.0000,1.0000,-1.0000,1.0000,0.0000,2.0000 /

-- Blender Collection: <Output>
&SLCF ID='Temp slice' QUANTITY='TEMPERATURE' VECTOR=T CELL_CENTERED=T PBX=0.0000 /

&TAIL /
