! Generated by BlenderFDS 6.0.0 on Blender 3.2.0 Beta
! Date: Sat, 21 May 2022, 18:50:25
! File: ···fds.verification/tests/MPI_export/bl/FM_Datacenter_High_C3H6_HA.blend

--- Case from Blender Scene: <FM_Datacenter_High_C3H6_HA> | View Layer: <ViewLayer>

&HEAD CHID='FM_Datacenter_High_C3H6_HA'
      TITLE='FM Datacenter Mockup High Speed Fan Propylene Hot Aisle ' /
&TIME T_BEGIN=-20.0 T_END=200.0 /
&REAC FUEL='PROPYLENE' SOOT_YIELD=0.095 /
&DUMP NFRAMES=22 DT_PART=5000.0 /

--- Free text from Blender Text: <New Text>

-- From: <FM_Datacenter_High_C3H6_HA.fds>
&RAMP ID='Propylene-RAMP' T=0 F=0 /
&RAMP ID='Propylene-RAMP' T=5 F=1 /
&BNDF QUANTITY='NORMAL VELOCITY' /
&HVAC ID='DO-Z' TYPE_ID='LEAK' VENT_ID='DO-Z' VENT2_ID='AMBIENT' AREA=0.00163 /
&HVAC ID='DO+Z' TYPE_ID='LEAK' VENT_ID='DO+Z' VENT2_ID='AMBIENT' AREA=0.00163 /
&HVAC ID='DO-X' TYPE_ID='LEAK' VENT_ID='DO-X' VENT2_ID='AMBIENT' AREA=0.00152 /
&HVAC ID='DO=X' TYPE_ID='LEAK' VENT_ID='DO=X' VENT2_ID='AMBIENT' AREA=0.00152 /
&HVAC ID='DO+X' TYPE_ID='LEAK' VENT_ID='DO+X' VENT2_ID='AMBIENT' AREA=0.00152 /
&HVAC ID='DU+Z' TYPE_ID='LEAK' VENT_ID='DU+Z' VENT2_ID='AMBIENT' AREA=0.00244 /
&HVAC ID='DU-Z' TYPE_ID='LEAK' VENT_ID='DU-Z' VENT2_ID='AMBIENT' AREA=0.00244 /
&HVAC ID='DU-X' TYPE_ID='LEAK' VENT_ID='DU+X' VENT2_ID='AMBIENT' AREA=0.00046 /
&HVAC ID='DU+X' TYPE_ID='LEAK' VENT_ID='DU-X' VENT2_ID='AMBIENT' AREA=0.00046 /
&MATL ID='ALUMINUM' DENSITY=2700.0 CONDUCTIVITY=170.0 SPECIFIC_HEAT=0.90 /
&MATL ID='STEEL' DENSITY=7850.0 CONDUCTIVITY=48.0 SPECIFIC_HEAT=0.48 /
&MATL ID='GYPSUM' DENSITY=790.0 CONDUCTIVITY=0.17 SPECIFIC_HEAT=1.1 /
&MATL ID='PLEXI' DENSITY=1190.0 CONDUCTIVITY=0.10 SPECIFIC_HEAT=0.810 /
&MATL ID='WOOD' DENSITY=580.0 CONDUCTIVITY=0.10 SPECIFIC_HEAT=0.680 /
&PART ID='IX-SCREEN' DRAG_LAW='SCREEN' FREE_AREA_FRACTION=0.50 ORIENTATION=1,0,0
      SURF_ID='I-SCREEN' STATIC=T /
&PART ID='IY-SCREEN' DRAG_LAW='SCREEN' FREE_AREA_FRACTION=0.50 ORIENTATION=0,1,0
      SURF_ID='I-SCREEN' STATIC=T /
&PART ID='IZ-SCREEN' DRAG_LAW='SCREEN' FREE_AREA_FRACTION=0.50 ORIENTATION=0,0,1
      SURF_ID='I-SCREEN' STATIC=T /
&PART ID='FX-SCREEN' DRAG_LAW='SCREEN' FREE_AREA_FRACTION=0.54 ORIENTATION=1,0,0
      SURF_ID='F-SCREEN' STATIC=T /
&PART ID='FY-SCREEN' DRAG_LAW='SCREEN' FREE_AREA_FRACTION=0.54 ORIENTATION=0,1,0
      SURF_ID='F-SCREEN' STATIC=T /
&PART ID='FZ-SCREEN' DRAG_LAW='SCREEN' FREE_AREA_FRACTION=0.54 ORIENTATION=0,0,1
      SURF_ID='F-SCREEN' STATIC=T /
&PART ID='CX-SCREEN' DRAG_LAW='SCREEN' FREE_AREA_FRACTION=0.50 ORIENTATION=1,0,0
      SURF_ID='C-SCREEN' STATIC=T /
&PART ID='CY-SCREEN' DRAG_LAW='SCREEN' FREE_AREA_FRACTION=0.50 ORIENTATION=0,1,0
      SURF_ID='C-SCREEN' STATIC=T /
&PART ID='CZ-SCREEN' DRAG_LAW='SCREEN' FREE_AREA_FRACTION=0.50 ORIENTATION=0,0,1
      SURF_ID='C-SCREEN' STATIC=T /
&PART ID='RX-SCREEN' DRAG_LAW='SCREEN' FREE_AREA_FRACTION=0.50 ORIENTATION=1,0,0
      SURF_ID='R-SCREEN' STATIC=T /
&PART ID='RY-SCREEN' DRAG_LAW='SCREEN' FREE_AREA_FRACTION=0.50 ORIENTATION=0,1,0
      SURF_ID='R-SCREEN' STATIC=T /
&PART ID='RZ-SCREEN' DRAG_LAW='SCREEN' FREE_AREA_FRACTION=0.50 ORIENTATION=0,0,1
      SURF_ID='R-SCREEN' STATIC=T /
&PART ID='M-SCREEN' DRAG_LAW='SCREEN' FREE_AREA_FRACTION=0.36 ORIENTATION=1,0,0
      SURF_ID='M-SCREEN' STATIC=T /
&PART ID='MD-SCREEN' DRAG_LAW='SCREEN' FREE_AREA_FRACTION=0.36 ORIENTATION=0,1,0
      SURF_ID='M-SCREEN' STATIC=T /
&HVAC ID='L-1' TYPE_ID='LEAK' VENT_ID='V-1B' VENT2_ID='V-1T' AREA=0.00214 /
&HVAC ID='L-2' TYPE_ID='LEAK' VENT_ID='V-2B' VENT2_ID='V-2T' AREA=0.00214 /
&HVAC ID='L-3' TYPE_ID='LEAK' VENT_ID='V-3B' VENT2_ID='V-3T' AREA=0.00214 /
&HVAC ID='L-4' TYPE_ID='LEAK' VENT_ID='V-4B' VENT2_ID='V-4T' AREA=0.00214 /
&HVAC ID='L-5' TYPE_ID='LEAK' VENT_ID='V-5B' VENT2_ID='V-5T' AREA=0.00194 /
&HVAC ID='L-6' TYPE_ID='LEAK' VENT_ID='V-6B' VENT2_ID='V-6T' AREA=0.00214 /
&HVAC ID='L-7' TYPE_ID='LEAK' VENT_ID='V-7B' VENT2_ID='V-7T' AREA=0.00214 /
&HVAC ID='L-8' TYPE_ID='LEAK' VENT_ID='V-8B' VENT2_ID='V-8T' AREA=0.00214 /
&HVAC ID='L-9' TYPE_ID='LEAK' VENT_ID='V-9B' VENT2_ID='V-9T' AREA=0.00214 /
&HVAC ID='L-10' TYPE_ID='LEAK' VENT_ID='V-10B' VENT2_ID='V-10T' AREA=0.00214 /
&HVAC ID='L-11' TYPE_ID='LEAK' VENT_ID='V-11B' VENT2_ID='V-11T' AREA=0.00214 /
&HVAC ID='L-12' TYPE_ID='LEAK' VENT_ID='V-12B' VENT2_ID='V-12T' AREA=0.00214 /
&HVAC ID='L-13' TYPE_ID='LEAK' VENT_ID='V-13B' VENT2_ID='V-13T' AREA=0.00194 /
&HVAC ID='L-14' TYPE_ID='LEAK' VENT_ID='V-14B' VENT2_ID='V-14T' AREA=0.00214 /
&HVAC ID='L-15' TYPE_ID='LEAK' VENT_ID='V-15B' VENT2_ID='V-15T' AREA=0.00214 /
&HVAC ID='L-16' TYPE_ID='LEAK' VENT_ID='V-16B' VENT2_ID='V-16T' AREA=0.00214 /
&HVAC ID='L-17' TYPE_ID='LEAK' VENT_ID='V-17B' VENT2_ID='V-17T' AREA=0.00214 /
&HVAC ID='L-18' TYPE_ID='LEAK' VENT_ID='V-18B' VENT2_ID='V-18T' AREA=0.00214 /
&HVAC ID='L-19' TYPE_ID='LEAK' VENT_ID='V-19B' VENT2_ID='V-19T' AREA=0.00214 /
&HVAC ID='L-20' TYPE_ID='LEAK' VENT_ID='V-20B' VENT2_ID='V-20T' AREA=0.00214 /
&HVAC ID='L-21' TYPE_ID='LEAK' VENT_ID='V-21B' VENT2_ID='V-21T' AREA=0.00194 /
&HVAC ID='L-22' TYPE_ID='LEAK' VENT_ID='V-22B' VENT2_ID='V-22T' AREA=0.00214 /
&HVAC ID='L-23' TYPE_ID='LEAK' VENT_ID='V-23B' VENT2_ID='V-23T' AREA=0.00214 /
&HVAC ID='L-24' TYPE_ID='LEAK' VENT_ID='V-24B' VENT2_ID='V-24T' AREA=0.00214 /
&HVAC ID='L-25' TYPE_ID='LEAK' VENT_ID='V-25B' VENT2_ID='V-25T' AREA=0.00214 /
&HVAC ID='L-26' TYPE_ID='LEAK' VENT_ID='V-26B' VENT2_ID='V-26T' AREA=0.00214 /
&HVAC ID='L-27' TYPE_ID='LEAK' VENT_ID='V-27B' VENT2_ID='V-27T' AREA=0.00214 /
&HVAC ID='L-28' TYPE_ID='LEAK' VENT_ID='V-28B' VENT2_ID='V-28T' AREA=0.00214 /
&HVAC ID='L-29' TYPE_ID='LEAK' VENT_ID='V-29B' VENT2_ID='V-29T' AREA=0.00194 /
&HVAC ID='L-30' TYPE_ID='LEAK' VENT_ID='V-30B' VENT2_ID='V-30T' AREA=0.00214 /
&HVAC ID='L-31' TYPE_ID='LEAK' VENT_ID='V-31B' VENT2_ID='V-31T' AREA=0.00214 /
&HVAC ID='L-32' TYPE_ID='LEAK' VENT_ID='V-32B' VENT2_ID='V-32T' AREA=0.00214 /
&HVAC ID='L-34' TYPE_ID='LEAK' VENT_ID='V-34B' VENT2_ID='V-34T' AREA=0.00214 /
&HVAC ID='L-35' TYPE_ID='LEAK' VENT_ID='V-35B' VENT2_ID='V-35T' AREA=0.00214 /
&HVAC ID='L-36' TYPE_ID='LEAK' VENT_ID='V-36B' VENT2_ID='V-36T' AREA=0.00214 /
&HVAC ID='L-37' TYPE_ID='LEAK' VENT_ID='V-37B' VENT2_ID='V-37T' AREA=0.00194 /
&HVAC ID='L-38' TYPE_ID='LEAK' VENT_ID='V-38B' VENT2_ID='V-38T' AREA=0.00214 /
&HVAC ID='L-39' TYPE_ID='LEAK' VENT_ID='V-39B' VENT2_ID='V-39T' AREA=0.00214 /
&HVAC ID='L-42' TYPE_ID='LEAK' VENT_ID='V-42B' VENT2_ID='V-42T' AREA=0.00214 /
&HVAC ID='L-43' TYPE_ID='LEAK' VENT_ID='V-43B' VENT2_ID='V-43T' AREA=0.00214 /
&HVAC ID='L-44' TYPE_ID='LEAK' VENT_ID='V-44B' VENT2_ID='V-44T' AREA=0.00214 /
&HVAC ID='L-45' TYPE_ID='LEAK' VENT_ID='V-45B' VENT2_ID='V-45T' AREA=0.00194 /
&HVAC ID='L-46' TYPE_ID='LEAK' VENT_ID='V-46B' VENT2_ID='V-46T' AREA=0.00214 /
&HVAC ID='L-47' TYPE_ID='LEAK' VENT_ID='V-47B' VENT2_ID='V-47T' AREA=0.00214 /
&HVAC ID='L-50' TYPE_ID='LEAK' VENT_ID='V-50B' VENT2_ID='V-50T' AREA=0.00214 /
&HVAC ID='L-51' TYPE_ID='LEAK' VENT_ID='V-51B' VENT2_ID='V-51T' AREA=0.00214 /
&HVAC ID='L-52' TYPE_ID='LEAK' VENT_ID='V-52B' VENT2_ID='V-52T' AREA=0.00214 /
&HVAC ID='L-53' TYPE_ID='LEAK' VENT_ID='V-53B' VENT2_ID='V-53T' AREA=0.00194 /
&HVAC ID='L-54' TYPE_ID='LEAK' VENT_ID='V-54B' VENT2_ID='V-54T' AREA=0.00214 /
&HVAC ID='L-55' TYPE_ID='LEAK' VENT_ID='V-55B' VENT2_ID='V-55T' AREA=0.00214 /
&HVAC ID='L-58' TYPE_ID='LEAK' VENT_ID='V-58B' VENT2_ID='V-58T' AREA=0.00214 /
&HVAC ID='L-59' TYPE_ID='LEAK' VENT_ID='V-59B' VENT2_ID='V-59T' AREA=0.00214 /
&HVAC ID='L-60' TYPE_ID='LEAK' VENT_ID='V-60B' VENT2_ID='V-60T' AREA=0.00214 /
&HVAC ID='L-61' TYPE_ID='LEAK' VENT_ID='V-61B' VENT2_ID='V-61T' AREA=0.00194 /
&HVAC ID='L-62' TYPE_ID='LEAK' VENT_ID='V-62B' VENT2_ID='V-62T' AREA=0.00214 /
&HVAC ID='L-63' TYPE_ID='LEAK' VENT_ID='V-63B' VENT2_ID='V-63T' AREA=0.00214 /
&HVAC ID='L-66' TYPE_ID='LEAK' VENT_ID='V-66B' VENT2_ID='V-66T' AREA=0.00214 /
&HVAC ID='L-67' TYPE_ID='LEAK' VENT_ID='V-67B' VENT2_ID='V-67T' AREA=0.00214 /
&HVAC ID='L-68' TYPE_ID='LEAK' VENT_ID='V-68B' VENT2_ID='V-68T' AREA=0.00214 /
&HVAC ID='L-69' TYPE_ID='LEAK' VENT_ID='V-69B' VENT2_ID='V-69T' AREA=0.00194 /
&HVAC ID='L-70' TYPE_ID='LEAK' VENT_ID='V-70B' VENT2_ID='V-70T' AREA=0.00214 /
&HVAC ID='L-71' TYPE_ID='LEAK' VENT_ID='V-71B' VENT2_ID='V-71T' AREA=0.00214 /
&HVAC ID='L-74' TYPE_ID='LEAK' VENT_ID='V-74B' VENT2_ID='V-74T' AREA=0.00214 /
&HVAC ID='L-75' TYPE_ID='LEAK' VENT_ID='V-75B' VENT2_ID='V-75T' AREA=0.00214 /
&HVAC ID='L-76' TYPE_ID='LEAK' VENT_ID='V-76B' VENT2_ID='V-76T' AREA=0.00214 /
&HVAC ID='L-77' TYPE_ID='LEAK' VENT_ID='V-77B' VENT2_ID='V-77T' AREA=0.00194 /
&HVAC ID='L-78' TYPE_ID='LEAK' VENT_ID='V-78B' VENT2_ID='V-78T' AREA=0.00214 /
&HVAC ID='L-79' TYPE_ID='LEAK' VENT_ID='V-79B' VENT2_ID='V-79T' AREA=0.00214 /
&HVAC ID='L-82' TYPE_ID='LEAK' VENT_ID='V-82B' VENT2_ID='V-82T' AREA=0.00214 /
&HVAC ID='L-83' TYPE_ID='LEAK' VENT_ID='V-83B' VENT2_ID='V-83T' AREA=0.00214 /
&HVAC ID='L-84' TYPE_ID='LEAK' VENT_ID='V-84B' VENT2_ID='V-84T' AREA=0.00214 /
&HVAC ID='L-85' TYPE_ID='LEAK' VENT_ID='V-85B' VENT2_ID='V-85T' AREA=0.00194 /
&HVAC ID='L-86' TYPE_ID='LEAK' VENT_ID='V-86B' VENT2_ID='V-86T' AREA=0.00214 /
&HVAC ID='L-87' TYPE_ID='LEAK' VENT_ID='V-87B' VENT2_ID='V-87T' AREA=0.00214 /
&HVAC ID='L-90' TYPE_ID='LEAK' VENT_ID='V-90B' VENT2_ID='V-90T' AREA=0.00214 /
&HVAC ID='L-91' TYPE_ID='LEAK' VENT_ID='V-91B' VENT2_ID='V-91T' AREA=0.00214 /
&HVAC ID='L-92' TYPE_ID='LEAK' VENT_ID='V-92B' VENT2_ID='V-92T' AREA=0.00214 /
&HVAC ID='L-93' TYPE_ID='LEAK' VENT_ID='V-93B' VENT2_ID='V-93T' AREA=0.00194 /
&HVAC ID='L-94' TYPE_ID='LEAK' VENT_ID='V-94B' VENT2_ID='V-94T' AREA=0.00214 /
&HVAC ID='L-95' TYPE_ID='LEAK' VENT_ID='V-95B' VENT2_ID='V-95T' AREA=0.00214 /
&HVAC ID='L-98' TYPE_ID='LEAK' VENT_ID='V-98B' VENT2_ID='V-98T' AREA=0.00214 /
&HVAC ID='L-99' TYPE_ID='LEAK' VENT_ID='V-99B' VENT2_ID='V-99T' AREA=0.00214 /
&HVAC ID='L-100' TYPE_ID='LEAK' VENT_ID='V-100B' VENT2_ID='V-100T' AREA=0.00214 /
&HVAC ID='L-101' TYPE_ID='LEAK' VENT_ID='V-101B' VENT2_ID='V-101T' AREA=0.00194 /
&HVAC ID='L-102' TYPE_ID='LEAK' VENT_ID='V-102B' VENT2_ID='V-102T' AREA=0.00214 /
&HVAC ID='L-103' TYPE_ID='LEAK' VENT_ID='V-103B' VENT2_ID='V-103T' AREA=0.00214 /
&HVAC ID='L-105' TYPE_ID='LEAK' VENT_ID='V-105B' VENT2_ID='V-105T' AREA=0.00233 /
&HVAC ID='L-106' TYPE_ID='LEAK' VENT_ID='V-106B' VENT2_ID='V-106T' AREA=0.00233 /
&HVAC ID='L-107' TYPE_ID='LEAK' VENT_ID='V-107B' VENT2_ID='V-107T' AREA=0.00233 /
&HVAC ID='L-108' TYPE_ID='LEAK' VENT_ID='V-108B' VENT2_ID='V-108T' AREA=0.00233 /
&HVAC ID='L-109' TYPE_ID='LEAK' VENT_ID='V-109B' VENT2_ID='V-109T' AREA=0.00233 /
&HVAC ID='L-110' TYPE_ID='LEAK' VENT_ID='V-110B' VENT2_ID='V-110T' AREA=0.00233 /
&HVAC ID='L-111' TYPE_ID='LEAK' VENT_ID='V-111B' VENT2_ID='V-111T' AREA=0.00233 /
&HVAC ID='L-112' TYPE_ID='LEAK' VENT_ID='V-112B' VENT2_ID='V-112T' AREA=0.00233 /
&HVAC ID='L-113' TYPE_ID='LEAK' VENT_ID='V-113B' VENT2_ID='V-113T' AREA=0.00233 /
&HVAC ID='L-114' TYPE_ID='LEAK' VENT_ID='V-114B' VENT2_ID='V-114T' AREA=0.00233 /
&HVAC ID='L-115' TYPE_ID='LEAK' VENT_ID='V-115B' VENT2_ID='V-115T' AREA=0.00233 /
&HVAC ID='L-116' TYPE_ID='LEAK' VENT_ID='V-116B' VENT2_ID='V-116T' AREA=0.00233 /
&HVAC ID='L-117' TYPE_ID='LEAK' VENT_ID='V-117B' VENT2_ID='V-117T' AREA=0.00233 /
&HVAC ID='L-118' TYPE_ID='LEAK' VENT_ID='V-118B' VENT2_ID='V-118T' AREA=0.00233 /
&HVAC ID='L-119' TYPE_ID='LEAK' VENT_ID='V-119B' VENT2_ID='V-119T' AREA=0.00233 /
&HVAC ID='L-120' TYPE_ID='LEAK' VENT_ID='V-120B' VENT2_ID='V-120T' AREA=0.00233 /
&HVAC ID='L-121' TYPE_ID='LEAK' VENT_ID='V-121B' VENT2_ID='V-121T' AREA=0.00233 /
&HVAC ID='L-122' TYPE_ID='LEAK' VENT_ID='V-122B' VENT2_ID='V-122T' AREA=0.00233 /
&HVAC ID='L-123' TYPE_ID='LEAK' VENT_ID='V-123B' VENT2_ID='V-123T' AREA=0.00292 /
&HVAC ID='L-124' TYPE_ID='LEAK' VENT_ID='V-124B' VENT2_ID='V-124T' AREA=0.00292 /
&HVAC ID='L-125' TYPE_ID='LEAK' VENT_ID='V-125B' VENT2_ID='V-125T' AREA=0.00292 /
&HVAC ID='L-126' TYPE_ID='LEAK' VENT_ID='V-126B' VENT2_ID='V-126T' AREA=0.00292 /
&HVAC ID='L-127' TYPE_ID='LEAK' VENT_ID='V-127B' VENT2_ID='V-127T' AREA=0.00292 /
&HVAC ID='L-128' TYPE_ID='LEAK' VENT_ID='V-128B' VENT2_ID='V-128T' AREA=0.00292 /
&HVAC ID='L-129' TYPE_ID='LEAK' VENT_ID='V-129B' VENT2_ID='V-129T' AREA=0.00292 /
&HVAC ID='L-130' TYPE_ID='LEAK' VENT_ID='V-130B' VENT2_ID='V-130T' AREA=0.00292 /
&HVAC ID='L-131' TYPE_ID='LEAK' VENT_ID='V-131B' VENT2_ID='V-131T' AREA=0.00292 /
&HVAC ID='L-134' TYPE_ID='LEAK' VENT_ID='V-134B' VENT2_ID='V-134T' AREA=0.00175 /
&HVAC ID='L-135' TYPE_ID='LEAK' VENT_ID='V-135B' VENT2_ID='V-135T' AREA=0.00175 /
&HVAC ID='L-136' TYPE_ID='LEAK' VENT_ID='V-136B' VENT2_ID='V-136T' AREA=0.00175 /
&HVAC ID='L-137' TYPE_ID='LEAK' VENT_ID='V-137B' VENT2_ID='V-137T' AREA=0.00175 /
&HVAC ID='L-138' TYPE_ID='LEAK' VENT_ID='V-138B' VENT2_ID='V-138T' AREA=0.00175 /
&HVAC ID='L-143' TYPE_ID='LEAK' VENT_ID='V-143B' VENT2_ID='V-143T' AREA=0.00233 /
&HVAC ID='L-144' TYPE_ID='LEAK' VENT_ID='V-144B' VENT2_ID='V-144T' AREA=0.00233 /
&HVAC ID='L-145' TYPE_ID='LEAK' VENT_ID='V-145B' VENT2_ID='V-145T' AREA=0.00233 /
&HVAC ID='L-146' TYPE_ID='LEAK' VENT_ID='V-146B' VENT2_ID='V-146T' AREA=0.00233 /
&HVAC ID='L-147' TYPE_ID='LEAK' VENT_ID='V-147B' VENT2_ID='V-147T' AREA=0.00233 /
&HVAC ID='L-152' TYPE_ID='LEAK' VENT_ID='V-152B' VENT2_ID='V-152T' AREA=0.00233 /
&HVAC ID='L-153' TYPE_ID='LEAK' VENT_ID='V-153B' VENT2_ID='V-153T' AREA=0.00233 /
&HVAC ID='L-154' TYPE_ID='LEAK' VENT_ID='V-154B' VENT2_ID='V-154T' AREA=0.00233 /
&HVAC ID='L-155' TYPE_ID='LEAK' VENT_ID='V-155B' VENT2_ID='V-155T' AREA=0.00233 /
&HVAC ID='L-156' TYPE_ID='LEAK' VENT_ID='V-156B' VENT2_ID='V-156T' AREA=0.00233 /
&HVAC ID='L-161' TYPE_ID='LEAK' VENT_ID='V-161B' VENT2_ID='V-161T' AREA=0.00233 /
&HVAC ID='L-162' TYPE_ID='LEAK' VENT_ID='V-162B' VENT2_ID='V-162T' AREA=0.00233 /
&HVAC ID='L-163' TYPE_ID='LEAK' VENT_ID='V-163B' VENT2_ID='V-163T' AREA=0.00233 /
&HVAC ID='L-164' TYPE_ID='LEAK' VENT_ID='V-164B' VENT2_ID='V-164T' AREA=0.00233 /
&HVAC ID='L-165' TYPE_ID='LEAK' VENT_ID='V-165B' VENT2_ID='V-165T' AREA=0.00233 /
&HVAC ID='L-170' TYPE_ID='LEAK' VENT_ID='V-170B' VENT2_ID='V-170T' AREA=0.00233 /
&HVAC ID='L-171' TYPE_ID='LEAK' VENT_ID='V-171B' VENT2_ID='V-171T' AREA=0.00233 /
&HVAC ID='L-172' TYPE_ID='LEAK' VENT_ID='V-172B' VENT2_ID='V-172T' AREA=0.00233 /
&HVAC ID='L-173' TYPE_ID='LEAK' VENT_ID='V-173B' VENT2_ID='V-173T' AREA=0.00233 /
&HVAC ID='L-174' TYPE_ID='LEAK' VENT_ID='V-174B' VENT2_ID='V-174T' AREA=0.00233 /
&HVAC ID='L-179' TYPE_ID='LEAK' VENT_ID='V-179B' VENT2_ID='V-179T' AREA=0.00233 /
&HVAC ID='L-180' TYPE_ID='LEAK' VENT_ID='V-180B' VENT2_ID='V-180T' AREA=0.00233 /
&HVAC ID='L-181' TYPE_ID='LEAK' VENT_ID='V-181B' VENT2_ID='V-181T' AREA=0.00233 /
&HVAC ID='L-182' TYPE_ID='LEAK' VENT_ID='V-182B' VENT2_ID='V-182T' AREA=0.00233 /
&HVAC ID='L-183' TYPE_ID='LEAK' VENT_ID='V-183B' VENT2_ID='V-183T' AREA=0.00233 /
&HVAC ID='L-188' TYPE_ID='LEAK' VENT_ID='V-188B' VENT2_ID='V-188T' AREA=0.00233 /
&HVAC ID='L-189' TYPE_ID='LEAK' VENT_ID='V-189B' VENT2_ID='V-189T' AREA=0.00233 /
&HVAC ID='L-190' TYPE_ID='LEAK' VENT_ID='V-190B' VENT2_ID='V-190T' AREA=0.00233 /
&HVAC ID='L-191' TYPE_ID='LEAK' VENT_ID='V-191B' VENT2_ID='V-191T' AREA=0.00233 /
&HVAC ID='L-192' TYPE_ID='LEAK' VENT_ID='V-192B' VENT2_ID='V-192T' AREA=0.00233 /
&HVAC ID='L-197' TYPE_ID='LEAK' VENT_ID='V-197B' VENT2_ID='V-197T' AREA=0.00233 /
&HVAC ID='L-198' TYPE_ID='LEAK' VENT_ID='V-198B' VENT2_ID='V-198T' AREA=0.00233 /
&HVAC ID='L-199' TYPE_ID='LEAK' VENT_ID='V-199B' VENT2_ID='V-199T' AREA=0.00233 /
&HVAC ID='L-200' TYPE_ID='LEAK' VENT_ID='V-200B' VENT2_ID='V-200T' AREA=0.00233 /
&HVAC ID='L-201' TYPE_ID='LEAK' VENT_ID='V-201B' VENT2_ID='V-201T' AREA=0.00233 /
&HVAC ID='L-206' TYPE_ID='LEAK' VENT_ID='V-206B' VENT2_ID='V-206T' AREA=0.00233 /
&HVAC ID='L-207' TYPE_ID='LEAK' VENT_ID='V-207B' VENT2_ID='V-207T' AREA=0.00233 /
&HVAC ID='L-208' TYPE_ID='LEAK' VENT_ID='V-208B' VENT2_ID='V-208T' AREA=0.00233 /
&HVAC ID='L-209' TYPE_ID='LEAK' VENT_ID='V-209B' VENT2_ID='V-209T' AREA=0.00233 /
&HVAC ID='L-210' TYPE_ID='LEAK' VENT_ID='V-210B' VENT2_ID='V-210T' AREA=0.00233 /
&HVAC ID='L-1001' TYPE_ID='LEAK' VENT_ID='V-1001B' VENT2_ID='V-1001T'
      AREA=0.00180 /
&HVAC ID='L-1002' TYPE_ID='LEAK' VENT_ID='V-1002B' VENT2_ID='V-1002T'
      AREA=0.00180 /
&HVAC ID='L-1004' TYPE_ID='LEAK' VENT_ID='V-1004B' VENT2_ID='V-1004T'
      AREA=0.00180 /
&HVAC ID='L-1005' TYPE_ID='LEAK' VENT_ID='V-1005B' VENT2_ID='V-1005T'
      AREA=0.00163 /
&HVAC ID='L-1007' TYPE_ID='LEAK' VENT_ID='V-1007B' VENT2_ID='V-1007T'
      AREA=0.00180 /
&HVAC ID='L-1008' TYPE_ID='LEAK' VENT_ID='V-1008B' VENT2_ID='V-1008T'
      AREA=0.00180 /
&HVAC ID='L-1009' TYPE_ID='LEAK' VENT_ID='V-1009B' VENT2_ID='V-1009T'
      AREA=0.00180 /
&HVAC ID='L-1010' TYPE_ID='LEAK' VENT_ID='V-1010B' VENT2_ID='V-1010T'
      AREA=0.00180 /
&HVAC ID='L-1015' TYPE_ID='LEAK' VENT_ID='V-1015B' VENT2_ID='V-1015T'
      AREA=0.00180 /
&HVAC ID='L-1016' TYPE_ID='LEAK' VENT_ID='V-1016B' VENT2_ID='V-1016T'
      AREA=0.00180 /
&HVAC ID='L-1017' TYPE_ID='LEAK' VENT_ID='V-1017B' VENT2_ID='V-1017T'
      AREA=0.00180 /
&HVAC ID='L-1018' TYPE_ID='LEAK' VENT_ID='V-1018B' VENT2_ID='V-1018T'
      AREA=0.00180 /
&HVAC ID='L-1023' TYPE_ID='LEAK' VENT_ID='V-1023B' VENT2_ID='V-1023T'
      AREA=0.00180 /
&HVAC ID='L-1024' TYPE_ID='LEAK' VENT_ID='V-1024B' VENT2_ID='V-1024T'
      AREA=0.00180 /
&HVAC ID='L-1025' TYPE_ID='LEAK' VENT_ID='V-1025B' VENT2_ID='V-1025T'
      AREA=0.00180 /
&HVAC ID='L-1026' TYPE_ID='LEAK' VENT_ID='V-1026B' VENT2_ID='V-1026T'
      AREA=0.00180 /
&HVAC ID='L-1028' TYPE_ID='LEAK' VENT_ID='V-1028B' VENT2_ID='V-1028T'
      AREA=0.00180 /
&HVAC ID='L-1029' TYPE_ID='LEAK' VENT_ID='V-1029B' VENT2_ID='V-1029T'
      AREA=0.00163 /
&HVAC ID='L-1031' TYPE_ID='LEAK' VENT_ID='V-1031B' VENT2_ID='V-1031T'
      AREA=0.00180 /
&HVAC ID='L-1032' TYPE_ID='LEAK' VENT_ID='V-1032B' VENT2_ID='V-1032T'
      AREA=0.00180 /
&HVAC ID='L-1033' TYPE_ID='LEAK' VENT_ID='V-1033B' VENT2_ID='V-1033T'
      AREA=0.00180 /
&HVAC ID='L-1034' TYPE_ID='LEAK' VENT_ID='V-1034B' VENT2_ID='V-1034T'
      AREA=0.00180 /
&HVAC ID='L-1035' TYPE_ID='LEAK' VENT_ID='V-1035B' VENT2_ID='V-1035T'
      AREA=0.00180 /
&HVAC ID='L-1038' TYPE_ID='LEAK' VENT_ID='V-1038B' VENT2_ID='V-1038T'
      AREA=0.00180 /
&HVAC ID='L-1039' TYPE_ID='LEAK' VENT_ID='V-1039B' VENT2_ID='V-1039T'
      AREA=0.00180 /
&HVAC ID='L-1040' TYPE_ID='LEAK' VENT_ID='V-1040B' VENT2_ID='V-1040T'
      AREA=0.00180 /
&HVAC ID='L-1041' TYPE_ID='LEAK' VENT_ID='V-1041B' VENT2_ID='V-1041T'
      AREA=0.00180 /
&HVAC ID='L-1042' TYPE_ID='LEAK' VENT_ID='V-1042B' VENT2_ID='V-1042T'
      AREA=0.00180 /
&HVAC ID='L-1047' TYPE_ID='LEAK' VENT_ID='V-1047B' VENT2_ID='V-1047T'
      AREA=0.00180 /
&HVAC ID='L-1048' TYPE_ID='LEAK' VENT_ID='V-1048B' VENT2_ID='V-1048T'
      AREA=0.00180 /
&HVAC ID='L-1049' TYPE_ID='LEAK' VENT_ID='V-1049B' VENT2_ID='V-1049T'
      AREA=0.00180 /
&HVAC ID='L-1050' TYPE_ID='LEAK' VENT_ID='V-1050B' VENT2_ID='V-1050T'
      AREA=0.00180 /
&HVAC ID='L-1052' TYPE_ID='LEAK' VENT_ID='V-1052B' VENT2_ID='V-1052T'
      AREA=0.00180 /
&HVAC ID='L-1053' TYPE_ID='LEAK' VENT_ID='V-1053B' VENT2_ID='V-1053T'
      AREA=0.00163 /
&HVAC ID='L-1055' TYPE_ID='LEAK' VENT_ID='V-1055B' VENT2_ID='V-1055T'
      AREA=0.00180 /
&HVAC ID='L-1056' TYPE_ID='LEAK' VENT_ID='V-1056B' VENT2_ID='V-1056T'
      AREA=0.00180 /
&HVAC ID='L-1057' TYPE_ID='LEAK' VENT_ID='V-1057B' VENT2_ID='V-1057T'
      AREA=0.00180 /
&HVAC ID='L-1058' TYPE_ID='LEAK' VENT_ID='V-1058B' VENT2_ID='V-1058T'
      AREA=0.00180 /
&HVAC ID='L-1059' TYPE_ID='LEAK' VENT_ID='V-1059B' VENT2_ID='V-1059T'
      AREA=0.00180 /
&HVAC ID='L-1062' TYPE_ID='LEAK' VENT_ID='V-1062B' VENT2_ID='V-1062T'
      AREA=0.00180 /
&HVAC ID='L-1063' TYPE_ID='LEAK' VENT_ID='V-1063B' VENT2_ID='V-1063T'
      AREA=0.00180 /
&HVAC ID='L-1064' TYPE_ID='LEAK' VENT_ID='V-1064B' VENT2_ID='V-1064T'
      AREA=0.00180 /
&HVAC ID='L-1065' TYPE_ID='LEAK' VENT_ID='V-1065B' VENT2_ID='V-1065T'
      AREA=0.00180 /
&HVAC ID='L-1066' TYPE_ID='LEAK' VENT_ID='V-1066B' VENT2_ID='V-1066T'
      AREA=0.00180 /
&HVAC ID='L-1071' TYPE_ID='LEAK' VENT_ID='V-1071B' VENT2_ID='V-1071T'
      AREA=0.00180 /
&HVAC ID='L-1072' TYPE_ID='LEAK' VENT_ID='V-1072B' VENT2_ID='V-1072T'
      AREA=0.00180 /
&HVAC ID='L-1073' TYPE_ID='LEAK' VENT_ID='V-1073B' VENT2_ID='V-1073T'
      AREA=0.00180 /
&HVAC ID='L-1074' TYPE_ID='LEAK' VENT_ID='V-1074B' VENT2_ID='V-1074T'
      AREA=0.00180 /
&HVAC ID='L-1076' TYPE_ID='LEAK' VENT_ID='V-1076B' VENT2_ID='V-1076T'
      AREA=0.00180 /
&HVAC ID='L-1077' TYPE_ID='LEAK' VENT_ID='V-1077B' VENT2_ID='V-1077T'
      AREA=0.00163 /
&HVAC ID='L-1079' TYPE_ID='LEAK' VENT_ID='V-1079B' VENT2_ID='V-1079T'
      AREA=0.00180 /
&HVAC ID='L-1080' TYPE_ID='LEAK' VENT_ID='V-1080B' VENT2_ID='V-1080T'
      AREA=0.00180 /
&HVAC ID='L-1081' TYPE_ID='LEAK' VENT_ID='V-1081B' VENT2_ID='V-1081T'
      AREA=0.00180 /
&HVAC ID='L-1082' TYPE_ID='LEAK' VENT_ID='V-1082B' VENT2_ID='V-1082T'
      AREA=0.00180 /
&HVAC ID='L-1083' TYPE_ID='LEAK' VENT_ID='V-1083B' VENT2_ID='V-1083T'
      AREA=0.00180 /
&HVAC ID='L-1086' TYPE_ID='LEAK' VENT_ID='V-1086B' VENT2_ID='V-1086T'
      AREA=0.00180 /
&HVAC ID='L-1087' TYPE_ID='LEAK' VENT_ID='V-1087B' VENT2_ID='V-1087T'
      AREA=0.00180 /
&HVAC ID='L-1088' TYPE_ID='LEAK' VENT_ID='V-1088B' VENT2_ID='V-1088T'
      AREA=0.00180 /
&HVAC ID='L-1089' TYPE_ID='LEAK' VENT_ID='V-1089B' VENT2_ID='V-1089T'
      AREA=0.00180 /
&HVAC ID='L-1090' TYPE_ID='LEAK' VENT_ID='V-1090B' VENT2_ID='V-1090T'
      AREA=0.00180 /
&HVAC ID='L-1095' TYPE_ID='LEAK' VENT_ID='V-1095B' VENT2_ID='V-1095T'
      AREA=0.00180 /
&HVAC ID='L-1096' TYPE_ID='LEAK' VENT_ID='V-1096B' VENT2_ID='V-1096T'
      AREA=0.00180 /
&HVAC ID='L-1097' TYPE_ID='LEAK' VENT_ID='V-1097B' VENT2_ID='V-1097T'
      AREA=0.00180 /
&HVAC ID='L-1098' TYPE_ID='LEAK' VENT_ID='V-1098B' VENT2_ID='V-1098T'
      AREA=0.00180 /
&HVAC ID='L-1100' TYPE_ID='LEAK' VENT_ID='V-1100B' VENT2_ID='V-1100T'
      AREA=0.00180 /
&HVAC ID='L-1101' TYPE_ID='LEAK' VENT_ID='V-1101B' VENT2_ID='V-1101T'
      AREA=0.00163 /
&HVAC ID='L-1103' TYPE_ID='LEAK' VENT_ID='V-1103B' VENT2_ID='V-1103T'
      AREA=0.00180 /
&HVAC ID='L-1104' TYPE_ID='LEAK' VENT_ID='V-1104B' VENT2_ID='V-1104T'
      AREA=0.00180 /
&HVAC ID='L-1105' TYPE_ID='LEAK' VENT_ID='V-1105B' VENT2_ID='V-1105T'
      AREA=0.00196 /
&HVAC ID='L-1106' TYPE_ID='LEAK' VENT_ID='V-1106B' VENT2_ID='V-1106T'
      AREA=0.00196 /
&HVAC ID='L-1109' TYPE_ID='LEAK' VENT_ID='V-1109B' VENT2_ID='V-1109T'
      AREA=0.00196 /
&HVAC ID='L-1112' TYPE_ID='LEAK' VENT_ID='V-1112B' VENT2_ID='V-1112T'
      AREA=0.00196 /
&HVAC ID='L-1113' TYPE_ID='LEAK' VENT_ID='V-1113B' VENT2_ID='V-1113T'
      AREA=0.00196 /
&HVAC ID='L-1114' TYPE_ID='LEAK' VENT_ID='V-1114B' VENT2_ID='V-1114T'
      AREA=0.00196 /
&HVAC ID='L-1115' TYPE_ID='LEAK' VENT_ID='V-1115B' VENT2_ID='V-1115T'
      AREA=0.00196 /
&HVAC ID='L-1116' TYPE_ID='LEAK' VENT_ID='V-1116B' VENT2_ID='V-1116T'
      AREA=0.00196 /
&HVAC ID='L-1120' TYPE_ID='LEAK' VENT_ID='V-1120B' VENT2_ID='V-1120T'
      AREA=0.00196 /
&HVAC ID='L-1121' TYPE_ID='LEAK' VENT_ID='V-1121B' VENT2_ID='V-1121T'
      AREA=0.00196 /
&HVAC ID='L-1122' TYPE_ID='LEAK' VENT_ID='V-1122B' VENT2_ID='V-1122T'
      AREA=0.00196 /
&HVAC ID='L-1123' TYPE_ID='LEAK' VENT_ID='V-1123B' VENT2_ID='V-1123T'
      AREA=0.00196 /
&HVAC ID='L-1124' TYPE_ID='LEAK' VENT_ID='V-1124B' VENT2_ID='V-1124T'
      AREA=0.00196 /
&HVAC ID='L-1127' TYPE_ID='LEAK' VENT_ID='V-1127B' VENT2_ID='V-1127T'
      AREA=0.00196 /
&HVAC ID='L-1130' TYPE_ID='LEAK' VENT_ID='V-1130B' VENT2_ID='V-1130T'
      AREA=0.00196 /
&HVAC ID='L-1131' TYPE_ID='LEAK' VENT_ID='V-1131B' VENT2_ID='V-1131T'
      AREA=0.00196 /
&HVAC ID='L-1132' TYPE_ID='LEAK' VENT_ID='V-1132B' VENT2_ID='V-1132T'
      AREA=0.00196 /
&HVAC ID='L-1133' TYPE_ID='LEAK' VENT_ID='V-1133B' VENT2_ID='V-1133T'
      AREA=0.00196 /
&HVAC ID='L-1134' TYPE_ID='LEAK' VENT_ID='V-1134B' VENT2_ID='V-1134T'
      AREA=0.00196 /
&HVAC ID='L-1135' TYPE_ID='LEAK' VENT_ID='V-1135B' VENT2_ID='V-1135T'
      AREA=0.00196 /
&HVAC ID='L-1136' TYPE_ID='LEAK' VENT_ID='V-1136B' VENT2_ID='V-1136T'
      AREA=0.00196 /
&HVAC ID='L-1137' TYPE_ID='LEAK' VENT_ID='V-1137B' VENT2_ID='V-1137T'
      AREA=0.00196 /
&HVAC ID='L-1138' TYPE_ID='LEAK' VENT_ID='V-1138B' VENT2_ID='V-1138T'
      AREA=0.00196 /
&HVAC ID='L-1139' TYPE_ID='LEAK' VENT_ID='V-1139B' VENT2_ID='V-1139T'
      AREA=0.00196 /
&HVAC ID='L-1140' TYPE_ID='LEAK' VENT_ID='V-1140B' VENT2_ID='V-1140T'
      AREA=0.00196 /
&HVAC ID='L-1141' TYPE_ID='LEAK' VENT_ID='V-1141B' VENT2_ID='V-1141T'
      AREA=0.00196 /
&HVAC ID='L-1142' TYPE_ID='LEAK' VENT_ID='V-1142B' VENT2_ID='V-1142T'
      AREA=0.00196 /
&HVAC ID='L-1143' TYPE_ID='LEAK' VENT_ID='V-1143B' VENT2_ID='V-1143T'
      AREA=0.00196 /
&HVAC ID='L-1147' TYPE_ID='LEAK' VENT_ID='V-1147B' VENT2_ID='V-1147T'
      AREA=0.00196 /
&HVAC ID='L-1148' TYPE_ID='LEAK' VENT_ID='V-1148B' VENT2_ID='V-1148T'
      AREA=0.00196 /
&HVAC ID='L-1149' TYPE_ID='LEAK' VENT_ID='V-1149B' VENT2_ID='V-1149T'
      AREA=0.00196 /
&HVAC ID='L-1150' TYPE_ID='LEAK' VENT_ID='V-1150B' VENT2_ID='V-1150T'
      AREA=0.00196 /
&HVAC ID='L-1151' TYPE_ID='LEAK' VENT_ID='V-1151B' VENT2_ID='V-1151T'
      AREA=0.00196 /
&HVAC ID='L-1154' TYPE_ID='LEAK' VENT_ID='V-1154B' VENT2_ID='V-1154T'
      AREA=0.00196 /
&HVAC ID='L-1157' TYPE_ID='LEAK' VENT_ID='V-1157B' VENT2_ID='V-1157T'
      AREA=0.00196 /
&HVAC ID='L-1158' TYPE_ID='LEAK' VENT_ID='V-1158B' VENT2_ID='V-1158T'
      AREA=0.00196 /
&HVAC ID='L-1159' TYPE_ID='LEAK' VENT_ID='V-1159B' VENT2_ID='V-1159T'
      AREA=0.00196 /
&HVAC ID='L-1160' TYPE_ID='LEAK' VENT_ID='V-1160B' VENT2_ID='V-1160T'
      AREA=0.00196 /
&HVAC ID='L-1161' TYPE_ID='LEAK' VENT_ID='V-1161B' VENT2_ID='V-1161T'
      AREA=0.00196 /
&HVAC ID='L-1162' TYPE_ID='LEAK' VENT_ID='V-1162B' VENT2_ID='V-1162T'
      AREA=0.00196 /
&HVAC ID='L-1163' TYPE_ID='LEAK' VENT_ID='V-1163B' VENT2_ID='V-1163T'
      AREA=0.00196 /
&HVAC ID='L-1164' TYPE_ID='LEAK' VENT_ID='V-1164B' VENT2_ID='V-1164T'
      AREA=0.00196 /
&HVAC ID='L-1165' TYPE_ID='LEAK' VENT_ID='V-1165B' VENT2_ID='V-1165T'
      AREA=0.00196 /
&HVAC ID='L-1166' TYPE_ID='LEAK' VENT_ID='V-1166B' VENT2_ID='V-1166T'
      AREA=0.00196 /
&HVAC ID='L-1167' TYPE_ID='LEAK' VENT_ID='V-1167B' VENT2_ID='V-1167T'
      AREA=0.00196 /
&HVAC ID='L-1168' TYPE_ID='LEAK' VENT_ID='V-1168B' VENT2_ID='V-1168T'
      AREA=0.00196 /
&HVAC ID='L-1169' TYPE_ID='LEAK' VENT_ID='V-1169B' VENT2_ID='V-1169T'
      AREA=0.00196 /
&HVAC ID='L-1170' TYPE_ID='LEAK' VENT_ID='V-1170B' VENT2_ID='V-1170T'
      AREA=0.00196 /
&HVAC ID='L-1174' TYPE_ID='LEAK' VENT_ID='V-1174B' VENT2_ID='V-1174T'
      AREA=0.00196 /
&HVAC ID='L-1175' TYPE_ID='LEAK' VENT_ID='V-1175B' VENT2_ID='V-1175T'
      AREA=0.00196 /
&HVAC ID='L-1176' TYPE_ID='LEAK' VENT_ID='V-1176B' VENT2_ID='V-1176T'
      AREA=0.00196 /
&HVAC ID='L-1177' TYPE_ID='LEAK' VENT_ID='V-1177B' VENT2_ID='V-1177T'
      AREA=0.00196 /
&HVAC ID='L-1178' TYPE_ID='LEAK' VENT_ID='V-1178B' VENT2_ID='V-1178T'
      AREA=0.00196 /
&HVAC ID='L-1181' TYPE_ID='LEAK' VENT_ID='V-1181B' VENT2_ID='V-1181T'
      AREA=0.00196 /
&HVAC ID='L-1184' TYPE_ID='LEAK' VENT_ID='V-1184B' VENT2_ID='V-1184T'
      AREA=0.00196 /
&HVAC ID='L-1185' TYPE_ID='LEAK' VENT_ID='V-1185B' VENT2_ID='V-1185T'
      AREA=0.00196 /
&HVAC ID='L-1186' TYPE_ID='LEAK' VENT_ID='V-1186B' VENT2_ID='V-1186T'
      AREA=0.00196 /
&HVAC ID='L-1187' TYPE_ID='LEAK' VENT_ID='V-1187B' VENT2_ID='V-1187T'
      AREA=0.00196 /
&HVAC ID='L-1188' TYPE_ID='LEAK' VENT_ID='V-1188B' VENT2_ID='V-1188T'
      AREA=0.00196 /
&HVAC ID='L-1189' TYPE_ID='LEAK' VENT_ID='V-1189B' VENT2_ID='V-1189T'
      AREA=0.00196 /
&HVAC ID='L-1190' TYPE_ID='LEAK' VENT_ID='V-1190B' VENT2_ID='V-1190T'
      AREA=0.00196 /
&HVAC ID='L-1191' TYPE_ID='LEAK' VENT_ID='V-1191B' VENT2_ID='V-1191T'
      AREA=0.00196 /
&HVAC ID='L-1192' TYPE_ID='LEAK' VENT_ID='V-1192B' VENT2_ID='V-1192T'
      AREA=0.00196 /
&HVAC ID='L-1193' TYPE_ID='LEAK' VENT_ID='V-1193B' VENT2_ID='V-1193T'
      AREA=0.00196 /
&HVAC ID='L-1194' TYPE_ID='LEAK' VENT_ID='V-1194B' VENT2_ID='V-1194T'
      AREA=0.00196 /
&HVAC ID='L-1195' TYPE_ID='LEAK' VENT_ID='V-1195B' VENT2_ID='V-1195T'
      AREA=0.00196 /
&HVAC ID='L-1196' TYPE_ID='LEAK' VENT_ID='V-1196B' VENT2_ID='V-1196T'
      AREA=0.00196 /
&HVAC ID='L-1197' TYPE_ID='LEAK' VENT_ID='V-1197B' VENT2_ID='V-1197T'
      AREA=0.00196 /
&HVAC ID='L-1201' TYPE_ID='LEAK' VENT_ID='V-1201B' VENT2_ID='V-1201T'
      AREA=0.00196 /
&HVAC ID='L-1202' TYPE_ID='LEAK' VENT_ID='V-1202B' VENT2_ID='V-1202T'
      AREA=0.00196 /
&HVAC ID='L-1203' TYPE_ID='LEAK' VENT_ID='V-1203B' VENT2_ID='V-1203T'
      AREA=0.00196 /
&HVAC ID='L-1204' TYPE_ID='LEAK' VENT_ID='V-1204B' VENT2_ID='V-1204T'
      AREA=0.00196 /
&HVAC ID='L-1205' TYPE_ID='LEAK' VENT_ID='V-1205B' VENT2_ID='V-1205T'
      AREA=0.00196 /
&HVAC ID='L-1208' TYPE_ID='LEAK' VENT_ID='V-1208B' VENT2_ID='V-1208T'
      AREA=0.00196 /
&HVAC ID='L-1211' TYPE_ID='LEAK' VENT_ID='V-1211B' VENT2_ID='V-1211T'
      AREA=0.00196 /
&HVAC ID='L-1212' TYPE_ID='LEAK' VENT_ID='V-1212B' VENT2_ID='V-1212T'
      AREA=0.00196 /

--- Boundary conditions from Blender Materials

&SURF ID='C-SCREEN' RGB=204,204,204 GEOMETRY='CYLINDRICAL' THICKNESS=0.0002231
      ADIABATIC=T /
&SURF ID='CABINET' RGB=100,100,230 MATL_ID='STEEL' THICKNESS=0.001 /
&SURF ID='CEILING' RGB=185,190,190 MATL_ID='GYPSUM' THICKNESS=0.0127 /
&SURF ID='DOOR' RGB=210,110,110 MATL_ID='GYPSUM' THICKNESS=0.0127 /
&SURF ID='DUCT' RGB=153,153,153 TRANSPARENCY=0.500 MATL_ID='STEEL'
      THICKNESS=0.001 /
&SURF ID='F-SCREEN' RGB=204,204,204 GEOMETRY='CYLINDRICAL' THICKNESS=0.0004219
      ADIABATIC=T /
&SURF ID='FAN' RGB=0,255,0 VOLUME_FLOW=12.80676582 /
&SURF ID='FLOOR' RGB=180,180,180 MATL_ID='GYPSUM' THICKNESS=0.0127 /
&SURF ID='FLOOR GRATE' RGB=50,100,50 MATL_ID='ALUMINUM' THICKNESS=0.002
      FREE_SLIP=T /