!!! Generated by BlenderFDS 6.0.0 on Blender 3.0.0
!!! Date: <ven, 11 feb 2022, 13:08:30>
!!! File: <not saved>
! --- Case from Blender Scene <geom_xb_move_dx_dy_dz> and View Layer <ViewLayer>
&HEAD CHID='geom_xb_move_dx_dy_dz' /
&TIME T_END=1.0 /

! --- Boundary conditions from Blender Materials
&SURF ID='Blue bc' RGB=0,0,255 /
&SURF ID='Dark blue bc' RGB=0,0,50 /
&SURF ID='Dark green bc' RGB=0,50,0 /
&SURF ID='Dark red bc' RGB=50,0,0 /
&SURF ID='Green bc' RGB=0,255,0 /
&SURF ID='Red bc' RGB=255,0,0 /

! --- Geometric namelists from Blender Collections
! GEOM Vertices: 24 | Faces: 36
&GEOM ID='Cube001' SURF_ID='Dark red bc','Red bc','Dark green bc','Green bc',
      'Dark blue bc','Blue bc' BINARY_FILE='New GEOM.bingeom' /
! GEOM Vertices: 24 | Faces: 36
&GEOM ID='Cube002' SURF_ID='Dark red bc','Red bc','Dark green bc','Green bc',
      'Dark blue bc','Blue bc' BINARY_FILE='New GEOM.001.bingeom' /
! MESH Cell Qty: 1000
! Cell Size: 0.400m · 0.400m · 0.400m | Aspect: 1.0 | Poisson: Yes
&MESH ID='Domain' IJK=10,10,10
      XB=-2.000000,2.000000,-2.000000,2.000000,-2.000000,2.000000 /

&TAIL /
 
