!!! Generated by BlenderFDS 6.0.0 on Blender 3.0.0
!!! Date: <lun, 31 gen 2022, 07:24:09>
!!! File: <...ification/tests/test_geometries/bl/terrain_geometry.blend>
! --- Case from Blender Scene <geom_terrain_extend> and View Layer <View Layer>
&HEAD CHID='geom_terrain_extend' TITLE='Test simple geom' /
&TIME T_END=1.0 /

! --- Boundary conditions from Blender Materials
&SURF ID='Material_blue' RGB=0,16,204 /
&SURF ID='Material_red' RGB=255,0,0 /

! --- Geometric namelists from Blender Collections
! MESH Cell Qty: 8000
! Cell Size: 0.100m · 0.100m · 0.100m | Aspect: 1.0 | Poisson: Yes
&MESH ID='Domain' IJK=20,20,20
      XB=-1.000000,1.000000,-1.000000,1.000000,-1.000000,1.000000 /
! GEOM Vertices: 45 | Faces: 51
&GEOM ID='Terrain_extend' SURF_ID='INERT','Material_red','Material_blue'
      BINARY_FILE='Terrain_extend.bingeom' IS_TERRAIN=T EXTEND_TERRAIN=T /

&TAIL /
 