!!! Generated by BlenderFDS 6.0.0 on Blender 3.0.0
!!! Date: <lun, 31 gen 2022, 09:45:00>
!!! File: <not saved>
! --- Case from Blender Scene <geom_shared_bingeom> and View Layer <ViewLayer>
&HEAD CHID='geom_shared_bingeom' /
&TIME T_END=1.0 /

! --- Boundary conditions from Blender Materials
&SURF ID='Material_blue' RGB=0,16,204 /
&SURF ID='Material_red' RGB=255,0,0 /

! --- Geometric namelists from Blender Collections
! MESH Cell Qty: 8000
! Cell Size: 0.100m · 0.100m · 0.100m | Aspect: 1.0 | Poisson: Yes
&MESH ID='Domain' IJK=20,20,20
      XB=-1.000000,1.000000,-1.000000,1.000000,-1.000000,1.000000 /
! GEOM Vertices: 12 | Faces: 12
&GEOM ID='Tet.002' SURF_ID='INERT','Material_red','Material_blue'
      BINARY_FILE='Tet_01.bingeom' /
! GEOM Vertices: 12 | Faces: 12
&GEOM ID='Tet.003' SURF_ID='INERT','Material_red','Material_blue'
      BINARY_FILE='Tet_01.001.bingeom' /
! GEOM Vertices: 12 | Faces: 12
&GEOM ID='Tet.004' SURF_ID='INERT','Material_red','Material_blue'
      BINARY_FILE='Tet_01.002.bingeom' /
! GEOM Vertices: 12 | Faces: 12
&GEOM ID='Tet.005' SURF_ID='INERT','Material_red','Material_blue'
      BINARY_FILE='Tet_01.003.bingeom' /
! GEOM Vertices: 12 | Faces: 12
&GEOM ID='Tet.007' SURF_ID='INERT','Material_red','Material_blue'
      BINARY_FILE='Tet_01.004.bingeom' /

&TAIL /
 