!!! Generated by BlenderFDS 6.0.0 on Blender 3.0.0
!!! Date: <gio, 10 feb 2022, 15:40:19>
!!! File: <not saved>
! --- Case from Blender Scene <mesh_mult> and View Layer <ViewLayer>
&HEAD CHID='mesh_mult' /
&TIME T_END=1.0 /

! --- Geometric namelists from Blender Collections
! MESH Cell Qty: 120
! Cell Size: 0.250m · 0.200m · 0.167m | Aspect: 1.5 | Poisson: Yes
&MESH ID='mesh_00_0_0_0' IJK=4,5,6
      XB=0.000000,1.000000,0.000000,1.000000,0.000000,1.000000 /
! MESH Cell Qty: 120
! Cell Size: 0.250m · 0.200m · 0.167m | Aspect: 1.5 | Poisson: Yes
&MESH ID='mesh_01_0_0_0' IJK=4,5,6
      XB=5.000000,6.000000,0.000000,1.000000,0.000000,1.000000 /
! MESH Cell Qty: 120
! Cell Size: 0.250m · 0.200m · 0.167m | Aspect: 1.5 | Poisson: Yes
&MESH ID='mesh_01_1_0_0' IJK=4,5,6
      XB=6.000000,7.000000,0.000000,1.000000,0.000000,1.000000 /
! MESH Cell Qty: 120
! Cell Size: 0.250m · 0.200m · 0.167m | Aspect: 1.5 | Poisson: Yes
&MESH ID='mesh_01_2_0_0' IJK=4,5,6
      XB=7.000000,8.000000,0.000000,1.000000,0.000000,1.000000 /
! MESH Cell Qty: 120
! Cell Size: 0.250m · 0.200m · 0.167m | Aspect: 1.5 | Poisson: Yes
&MESH ID='mesh_01_3_0_0' IJK=4,5,6
      XB=8.000000,9.000000,0.000000,1.000000,0.000000,1.000000 /
! MESH Cell Qty: 120
! Cell Size: 0.250m · 0.200m · 0.167m | Aspect: 1.5 | Poisson: Yes
&MESH ID='mesh_02_0_0_0' IJK=4,5,6
      XB=10.000000,11.000000,0.000000,1.000000,0.000000,1.000000 /
! MESH Cell Qty: 120
! Cell Size: 0.250m · 0.200m · 0.167m | Aspect: 1.5 | Poisson: Yes
&MESH ID='mesh_02_0_1_0' IJK=4,5,6
      XB=10.000000,11.000000,1.000000,2.000000,0.000000,1.000000 /
! MESH Cell Qty: 120
! Cell Size: 0.250m · 0.200m · 0.167m | Aspect: 1.5 | Poisson: Yes
&MESH ID='mesh_02_0_2_0' IJK=4,5,6
      XB=10.000000,11.000000,2.000000,3.000000,0.000000,1.000000 /
! MESH Cell Qty: 120
! Cell Size: 0.250m · 0.200m · 0.167m | Aspect: 1.5 | Poisson: Yes
&MESH ID='mesh_02_0_3_0' IJK=4,5,6
      XB=10.000000,11.000000,3.000000,4.000000,0.000000,1.000000 /
! MESH Cell Qty: 120
! Cell Size: 0.250m · 0.200m · 0.167m | Aspect: 1.5 | Poisson: Yes
&MESH ID='mesh_02_1_0_0' IJK=4,5,6
      XB=11.000000,12.000000,0.000000,1.000000,0.000000,1.000000 /
! MESH Cell Qty: 120
! Cell Size: 0.250m · 0.200m · 0.167m | Aspect: 1.5 | Poisson: Yes
&MESH ID='mesh_02_1_1_0' IJK=4,5,6
      XB=11.000000,12.000000,1.000000,2.000000,0.000000,1.000000 /
! MESH Cell Qty: 120
! Cell Size: 0.250m · 0.200m · 0.167m | Aspect: 1.5 | Poisson: Yes
&MESH ID='mesh_02_1_2_0' IJK=4,5,6
      XB=11.000000,12.000000,2.000000,3.000000,0.000000,1.000000 /
! MESH Cell Qty: 120
! Cell Size: 0.250m · 0.200m · 0.167m | Aspect: 1.5 | Poisson: Yes
&MESH ID='mesh_02_1_3_0' IJK=4,5,6
      XB=11.000000,12.000000,3.000000,4.000000,0.000000,1.000000 /
! MESH Cell Qty: 120
! Cell Size: 0.250m · 0.200m · 0.167m | Aspect: 1.5 | Poisson: Yes
&MESH ID='mesh_02_2_0_0' IJK=4,5,6
      XB=12.000000,13.000000,0.000000,1.000000,0.000000,1.000000 /
! MESH Cell Qty: 120
! Cell Size: 0.250m · 0.200m · 0.167m | Aspect: 1.5 | Poisson: Yes
&MESH ID='mesh_02_2_1_0' IJK=4,5,6
      XB=12.000000,13.000000,1.000000,2.000000,0.000000,1.000000 /
! MESH Cell Qty: 120
! Cell Size: 0.250m · 0.200m · 0.167m | Aspect: 1.5 | Poisson: Yes
&MESH ID='mesh_02_2_2_0' IJK=4,5,6
      XB=12.000000,13.000000,2.000000,3.000000,0.000000,1.000000 /
! MESH Cell Qty: 120
! Cell Size: 0.250m · 0.200m · 0.167m | Aspect: 1.5 | Poisson: Yes
&MESH ID='mesh_02_2_3_0' IJK=4,5,6
      XB=12.000000,13.000000,3.000000,4.000000,0.000000,1.000000 /
! MESH Cell Qty: 120
! Cell Size: 0.250m · 0.200m · 0.167m | Aspect: 1.5 | Poisson: Yes
&MESH ID='mesh_02_3_0_0' IJK=4,5,6
      XB=13.000000,14.000000,0.000000,1.000000,0.000000,1.000000 /
! MESH Cell Qty: 120
! Cell Size: 0.250m · 0.200m · 0.167m | Aspect: 1.5 | Poisson: Yes
&MESH ID='mesh_02_3_1_0' IJK=4,5,6
      XB=13.000000,14.000000,1.000000,2.000000,0.000000,1.000000 /
! MESH Cell Qty: 120
! Cell Size: 0.250m · 0.200m · 0.167m | Aspect: 1.5 | Poisson: Yes
&MESH ID='mesh_02_3_2_0' IJK=4,5,6
      XB=13.000000,14.000000,2.000000,3.000000,0.000000,1.000000 /
! MESH Cell Qty: 120
! Cell Size: 0.250m · 0.200m · 0.167m | Aspect: 1.5 | Poisson: Yes
&MESH ID='mesh_02_3_3_0' IJK=4,5,6
      XB=13.000000,14.000000,3.000000,4.000000,0.000000,1.000000 /
! MESH Cell Qty: 120
! Cell Size: 0.250m · 0.200m · 0.167m | Aspect: 1.5 | Poisson: Yes
&MESH ID='mesh_03_0_0_0' IJK=4,5,6
      XB=15.000000,16.000000,0.000000,1.000000,0.000000,1.000000 /
! MESH Cell Qty: 120
! Cell Size: 0.250m · 0.200m · 0.167m | Aspect: 1.5 | Poisson: Yes
&MESH ID='mesh_03_0_0_1' IJK=4,5,6
      XB=15.000000,16.000000,0.000000,1.000000,1.000000,2.000000 /
! MESH Cell Qty: 120
! Cell Size: 0.250m · 0.200m · 0.167m | Aspect: 1.5 | Poisson: Yes
&MESH ID='mesh_03_0_0_2' IJK=4,5,6
      XB=15.000000,16.000000,0.000000,1.000000,2.000000,3.000000 /
! MESH Cell Qty: 120
! Cell Size: 0.250m · 0.200m · 0.167m | Aspect: 1.5 | Poisson: Yes
&MESH ID='mesh_03_0_0_3' IJK=4,5,6
      XB=15.000000,16.000000,0.000000,1.000000,3.000000,4.000000 /
! MESH Cell Qty: 120
! Cell Size: 0.250m · 0.200m · 0.167m | Aspect: 1.5 | Poisson: Yes
&MESH ID='mesh_03_0_1_0' IJK=4,5,6
      XB=15.000000,16.000000,1.000000,2.000000,0.000000,1.000000 /
! MESH Cell Qty: 120
! Cell Size: 0.250m · 0.200m · 0.167m | Aspect: 1.5 | Poisson: Yes
&MESH ID='mesh_03_0_1_1' IJK=4,5,6
      XB=15.000000,16.000000,1.000000,2.000000,1.000000,2.000000 /
! MESH Cell Qty: 120
! Cell Size: 0.250m · 0.200m · 0.167m | Aspect: 1.5 | Poisson: Yes
&MESH ID='mesh_03_0_1_2' IJK=4,5,6
      XB=15.000000,16.000000,1.000000,2.000000,2.000000,3.000000 /
! MESH Cell Qty: 120
! Cell Size: 0.250m · 0.200m · 0.167m | Aspect: 1.5 | Poisson: Yes
&MESH ID='mesh_03_0_1_3' IJK=4,5,6
      XB=15.000000,16.000000,1.000000,2.000000,3.000000,4.000000 /
! MESH Cell Qty: 120
! Cell Size: 0.250m · 0.200m · 0.167m | Aspect: 1.5 | Poisson: Yes
&MESH ID='mesh_03_0_2_0' IJK=4,5,6
      XB=15.000000,16.000000,2.000000,3.000000,0.000000,1.000000 /
! MESH Cell Qty: 120
! Cell Size: 0.250m · 0.200m · 0.167m | Aspect: 1.5 | Poisson: Yes
&MESH ID='mesh_03_0_2_1' IJK=4,5,6
      XB=15.000000,16.000000,2.000000,3.000000,1.000000,2.000000 /
! MESH Cell Qty: 120
! Cell Size: 0.250m · 0.200m · 0.167m | Aspect: 1.5 | Poisson: Yes
&MESH ID='mesh_03_0_2_2' IJK=4,5,6
      XB=15.000000,16.000000,2.000000,3.000000,2.000000,3.000000 /
! MESH Cell Qty: 120
! Cell Size: 0.250m · 0.200m · 0.167m | Aspect: 1.5 | Poisson: Yes
&MESH ID='mesh_03_0_2_3' IJK=4,5,6
      XB=15.000000,16.000000,2.000000,3.000000,3.000000,4.000000 /
! MESH Cell Qty: 120
! Cell Size: 0.250m · 0.200m · 0.167m | Aspect: 1.5 | Poisson: Yes
&MESH ID='mesh_03_0_3_0' IJK=4,5,6
      XB=15.000000,16.000000,3.000000,4.000000,0.000000,1.000000 /
! MESH Cell Qty: 120
! Cell Size: 0.250m · 0.200m · 0.167m | Aspect: 1.5 | Poisson: Yes
&MESH ID='mesh_03_0_3_1' IJK=4,5,6
      XB=15.000000,16.000000,3.000000,4.000000,1.000000,2.000000 /
! MESH Cell Qty: 120
! Cell Size: 0.250m · 0.200m · 0.167m | Aspect: 1.5 | Poisson: Yes
&MESH ID='mesh_03_0_3_2' IJK=4,5,6
      XB=15.000000,16.000000,3.000000,4.000000,2.000000,3.000000 /
! MESH Cell Qty: 120
! Cell Size: 0.250m · 0.200m · 0.167m | Aspect: 1.5 | Poisson: Yes
&MESH ID='mesh_03_0_3_3' IJK=4,5,6
      XB=15.000000,16.000000,3.000000,4.000000,3.000000,4.000000 /
! MESH Cell Qty: 120
! Cell Size: 0.250m · 0.200m · 0.167m | Aspect: 1.5 | Poisson: Yes
&MESH ID='mesh_03_1_0_0' IJK=4,5,6
      XB=16.000000,17.000000,0.000000,1.000000,0.000000,1.000000 /
! MESH Cell Qty: 120
! Cell Size: 0.250m · 0.200m · 0.167m | Aspect: 1.5 | Poisson: Yes
&MESH ID='mesh_03_1_0_1' IJK=4,5,6
      XB=16.000000,17.000000,0.000000,1.000000,1.000000,2.000000 /
! MESH Cell Qty: 120
! Cell Size: 0.250m · 0.200m · 0.167m | Aspect: 1.5 | Poisson: Yes
&MESH ID='mesh_03_1_0_2' IJK=4,5,6
      XB=16.000000,17.000000,0.000000,1.000000,2.000000,3.000000 /
! MESH Cell Qty: 120
! Cell Size: 0.250m · 0.200m · 0.167m | Aspect: 1.5 | Poisson: Yes
&MESH ID='mesh_03_1_0_3' IJK=4,5,6
      XB=16.000000,17.000000,0.000000,1.000000,3.000000,4.000000 /
! MESH Cell Qty: 120
! Cell Size: 0.250m · 0.200m · 0.167m | Aspect: 1.5 | Poisson: Yes
&MESH ID='mesh_03_1_1_0' IJK=4,5,6
      XB=16.000000,17.000000,1.000000,2.000000,0.000000,1.000000 /
! MESH Cell Qty: 120
! Cell Size: 0.250m · 0.200m · 0.167m | Aspect: 1.5 | Poisson: Yes
&MESH ID='mesh_03_1_1_1' IJK=4,5,6
      XB=16.000000,17.000000,1.000000,2.000000,1.000000,2.000000 /
! MESH Cell Qty: 120
! Cell Size: 0.250m · 0.200m · 0.167m | Aspect: 1.5 | Poisson: Yes
&MESH ID='mesh_03_1_1_2' IJK=4,5,6
      XB=16.000000,17.000000,1.000000,2.000000,2.000000,3.000000 /
! MESH Cell Qty: 120
! Cell Size: 0.250m · 0.200m · 0.167m | Aspect: 1.5 | Poisson: Yes
&MESH ID='mesh_03_1_1_3' IJK=4,5,6
      XB=16.000000,17.000000,1.000000,2.000000,3.000000,4.000000 /
! MESH Cell Qty: 120
! Cell Size: 0.250m · 0.200m · 0.167m | Aspect: 1.5 | Poisson: Yes
&MESH ID='mesh_03_1_2_0' IJK=4,5,6
      XB=16.000000,17.000000,2.000000,3.000000,0.000000,1.000000 /
! MESH Cell Qty: 120
! Cell Size: 0.250m · 0.200m · 0.167m | Aspect: 1.5 | Poisson: Yes
&MESH ID='mesh_03_1_2_1' IJK=4,5,6
      XB=16.000000,17.000000,2.000000,3.000000,1.000000,2.000000 /
! MESH Cell Qty: 120
! Cell Size: 0.250m · 0.200m · 0.167m | Aspect: 1.5 | Poisson: Yes
&MESH ID='mesh_03_1_2_2' IJK=4,5,6
      XB=16.000000,17.000000,2.000000,3.000000,2.000000,3.000000 /
! MESH Cell Qty: 120
! Cell Size: 0.250m · 0.200m · 0.167m | Aspect: 1.5 | Poisson: Yes
&MESH ID='mesh_03_1_2_3' IJK=4,5,6
      XB=16.000000,17.000000,2.000000,3.000000,3.000000,4.000000 /
! MESH Cell Qty: 120
! Cell Size: 0.250m · 0.200m · 0.167m | Aspect: 1.5 | Poisson: Yes
&MESH ID='mesh_03_1_3_0' IJK=4,5,6
      XB=16.000000,17.000000,3.000000,4.000000,0.000000,1.000000 /
! MESH Cell Qty: 120
! Cell Size: 0.250m · 0.200m · 0.167m | Aspect: 1.5 | Poisson: Yes
&MESH ID='mesh_03_1_3_1' IJK=4,5,6
      XB=16.000000,17.000000,3.000000,4.000000,1.000000,2.000000 /
! MESH Cell Qty: 120
! Cell Size: 0.250m · 0.200m · 0.167m | Aspect: 1.5 | Poisson: Yes
&MESH ID='mesh_03_1_3_2' IJK=4,5,6
      XB=16.000000,17.000000,3.000000,4.000000,2.000000,3.000000 /
! MESH Cell Qty: 120
! Cell Size: 0.250m · 0.200m · 0.167m | Aspect: 1.5 | Poisson: Yes
&MESH ID='mesh_03_1_3_3' IJK=4,5,6
      XB=16.000000,17.000000,3.000000,4.000000,3.000000,4.000000 /
! MESH Cell Qty: 120
! Cell Size: 0.250m · 0.200m · 0.167m | Aspect: 1.5 | Poisson: Yes
&MESH ID='mesh_03_2_0_0' IJK=4,5,6
      XB=17.000000,18.000000,0.000000,1.000000,0.000000,1.000000 /
! MESH Cell Qty: 120
! Cell Size: 0.250m · 0.200m · 0.167m | Aspect: 1.5 | Poisson: Yes
&MESH ID='mesh_03_2_0_1' IJK=4,5,6
      XB=17.000000,18.000000,0.000000,1.000000,1.000000,2.000000 /
! MESH Cell Qty: 120
! Cell Size: 0.250m · 0.200m · 0.167m | Aspect: 1.5 | Poisson: Yes
&MESH ID='mesh_03_2_0_2' IJK=4,5,6
      XB=17.000000,18.000000,0.000000,1.000000,2.000000,3.000000 /
! MESH Cell Qty: 120
! Cell Size: 0.250m · 0.200m · 0.167m | Aspect: 1.5 | Poisson: Yes
&MESH ID='mesh_03_2_0_3' IJK=4,5,6
      XB=17.000000,18.000000,0.000000,1.000000,3.000000,4.000000 /
! MESH Cell Qty: 120
! Cell Size: 0.250m · 0.200m · 0.167m | Aspect: 1.5 | Poisson: Yes
&MESH ID='mesh_03_2_1_0' IJK=4,5,6
      XB=17.000000,18.000000,1.000000,2.000000,0.000000,1.000000 /
! MESH Cell Qty: 120
! Cell Size: 0.250m · 0.200m · 0.167m | Aspect: 1.5 | Poisson: Yes
&MESH ID='mesh_03_2_1_1' IJK=4,5,6
      XB=17.000000,18.000000,1.000000,2.000000,1.000000,2.000000 /
! MESH Cell Qty: 120
! Cell Size: 0.250m · 0.200m · 0.167m | Aspect: 1.5 | Poisson: Yes
&MESH ID='mesh_03_2_1_2' IJK=4,5,6
      XB=17.000000,18.000000,1.000000,2.000000,2.000000,3.000000 /
! MESH Cell Qty: 120
! Cell Size: 0.250m · 0.200m · 0.167m | Aspect: 1.5 | Poisson: Yes
&MESH ID='mesh_03_2_1_3' IJK=4,5,6
      XB=17.000000,18.000000,1.000000,2.000000,3.000000,4.000000 /
! MESH Cell Qty: 120
! Cell Size: 0.250m · 0.200m · 0.167m | Aspect: 1.5 | Poisson: Yes
&MESH ID='mesh_03_2_2_0' IJK=4,5,6
      XB=17.000000,18.000000,2.000000,3.000000,0.000000,1.000000 /
! MESH Cell Qty: 120
! Cell Size: 0.250m · 0.200m · 0.167m | Aspect: 1.5 | Poisson: Yes
&MESH ID='mesh_03_2_2_1' IJK=4,5,6
      XB=17.000000,18.000000,2.000000,3.000000,1.000000,2.000000 /
! MESH Cell Qty: 120
! Cell Size: 0.250m · 0.200m · 0.167m | Aspect: 1.5 | Poisson: Yes
&MESH ID='mesh_03_2_2_2' IJK=4,5,6
      XB=17.000000,18.000000,2.000000,3.000000,2.000000,3.000000 /
! MESH Cell Qty: 120
! Cell Size: 0.250m · 0.200m · 0.167m | Aspect: 1.5 | Poisson: Yes
&MESH ID='mesh_03_2_2_3' IJK=4,5,6
      XB=17.000000,18.000000,2.000000,3.000000,3.000000,4.000000 /
! MESH Cell Qty: 120
! Cell Size: 0.250m · 0.200m · 0.167m | Aspect: 1.5 | Poisson: Yes
&MESH ID='mesh_03_2_3_0' IJK=4,5,6
      XB=17.000000,18.000000,3.000000,4.000000,0.000000,1.000000 /
! MESH Cell Qty: 120
! Cell Size: 0.250m · 0.200m · 0.167m | Aspect: 1.5 | Poisson: Yes
&MESH ID='mesh_03_2_3_1' IJK=4,5,6
      XB=17.000000,18.000000,3.000000,4.000000,1.000000,2.000000 /
! MESH Cell Qty: 120
! Cell Size: 0.250m · 0.200m · 0.167m | Aspect: 1.5 | Poisson: Yes
&MESH ID='mesh_03_2_3_2' IJK=4,5,6
      XB=17.000000,18.000000,3.000000,4.000000,2.000000,3.000000 /
! MESH Cell Qty: 120
! Cell Size: 0.250m · 0.200m · 0.167m | Aspect: 1.5 | Poisson: Yes
&MESH ID='mesh_03_2_3_3' IJK=4,5,6
      XB=17.000000,18.000000,3.000000,4.000000,3.000000,4.000000 /
! MESH Cell Qty: 120
! Cell Size: 0.250m · 0.200m · 0.167m | Aspect: 1.5 | Poisson: Yes
&MESH ID='mesh_03_3_0_0' IJK=4,5,6
      XB=18.000000,19.000000,0.000000,1.000000,0.000000,1.000000 /
! MESH Cell Qty: 120
! Cell Size: 0.250m · 0.200m · 0.167m | Aspect: 1.5 | Poisson: Yes
&MESH ID='mesh_03_3_0_1' IJK=4,5,6
      XB=18.000000,19.000000,0.000000,1.000000,1.000000,2.000000 /
! MESH Cell Qty: 120
! Cell Size: 0.250m · 0.200m · 0.167m | Aspect: 1.5 | Poisson: Yes
&MESH ID='mesh_03_3_0_2' IJK=4,5,6
      XB=18.000000,19.000000,0.000000,1.000000,2.000000,3.000000 /
! MESH Cell Qty: 120
! Cell Size: 0.250m · 0.200m · 0.167m | Aspect: 1.5 | Poisson: Yes
&MESH ID='mesh_03_3_0_3' IJK=4,5,6
      XB=18.000000,19.000000,0.000000,1.000000,3.000000,4.000000 /
! MESH Cell Qty: 120
! Cell Size: 0.250m · 0.200m · 0.167m | Aspect: 1.5 | Poisson: Yes
&MESH ID='mesh_03_3_1_0' IJK=4,5,6
      XB=18.000000,19.000000,1.000000,2.000000,0.000000,1.000000 /
! MESH Cell Qty: 120
! Cell Size: 0.250m · 0.200m · 0.167m | Aspect: 1.5 | Poisson: Yes
&MESH ID='mesh_03_3_1_1' IJK=4,5,6
      XB=18.000000,19.000000,1.000000,2.000000,1.000000,2.000000 /
! MESH Cell Qty: 120
! Cell Size: 0.250m · 0.200m · 0.167m | Aspect: 1.5 | Poisson: Yes
&MESH ID='mesh_03_3_1_2' IJK=4,5,6
      XB=18.000000,19.000000,1.000000,2.000000,2.000000,3.000000 /
! MESH Cell Qty: 120
! Cell Size: 0.250m · 0.200m · 0.167m | Aspect: 1.5 | Poisson: Yes
&MESH ID='mesh_03_3_1_3' IJK=4,5,6
      XB=18.000000,19.000000,1.000000,2.000000,3.000000,4.000000 /
! MESH Cell Qty: 120
! Cell Size: 0.250m · 0.200m · 0.167m | Aspect: 1.5 | Poisson: Yes
&MESH ID='mesh_03_3_2_0' IJK=4,5,6
      XB=18.000000,19.000000,2.000000,3.000000,0.000000,1.000000 /
! MESH Cell Qty: 120
! Cell Size: 0.250m · 0.200m · 0.167m | Aspect: 1.5 | Poisson: Yes
&MESH ID='mesh_03_3_2_1' IJK=4,5,6
      XB=18.000000,19.000000,2.000000,3.000000,1.000000,2.000000 /
! MESH Cell Qty: 120
! Cell Size: 0.250m · 0.200m · 0.167m | Aspect: 1.5 | Poisson: Yes
&MESH ID='mesh_03_3_2_2' IJK=4,5,6
      XB=18.000000,19.000000,2.000000,3.000000,2.000000,3.000000 /
! MESH Cell Qty: 120
! Cell Size: 0.250m · 0.200m · 0.167m | Aspect: 1.5 | Poisson: Yes
&MESH ID='mesh_03_3_2_3' IJK=4,5,6
      XB=18.000000,19.000000,2.000000,3.000000,3.000000,4.000000 /
! MESH Cell Qty: 120
! Cell Size: 0.250m · 0.200m · 0.167m | Aspect: 1.5 | Poisson: Yes
&MESH ID='mesh_03_3_3_0' IJK=4,5,6
      XB=18.000000,19.000000,3.000000,4.000000,0.000000,1.000000 /
! MESH Cell Qty: 120
! Cell Size: 0.250m · 0.200m · 0.167m | Aspect: 1.5 | Poisson: Yes
&MESH ID='mesh_03_3_3_1' IJK=4,5,6
      XB=18.000000,19.000000,3.000000,4.000000,1.000000,2.000000 /
! MESH Cell Qty: 120
! Cell Size: 0.250m · 0.200m · 0.167m | Aspect: 1.5 | Poisson: Yes
&MESH ID='mesh_03_3_3_2' IJK=4,5,6
      XB=18.000000,19.000000,3.000000,4.000000,2.000000,3.000000 /
! MESH Cell Qty: 120
! Cell Size: 0.250m · 0.200m · 0.167m | Aspect: 1.5 | Poisson: Yes
&MESH ID='mesh_03_3_3_3' IJK=4,5,6
      XB=18.000000,19.000000,3.000000,4.000000,3.000000,4.000000 /
! MESH Cell Qty: 120
! Cell Size: 0.250m · 0.200m · 0.167m | Aspect: 1.5 | Poisson: Yes
&MESH ID='mesh_11_0_0_0' IJK=4,5,6
      XB=5.000000,6.000000,5.000000,6.000000,0.000000,1.000000 /
! MESH Cell Qty: 120
! Cell Size: 0.250m · 0.200m · 0.167m | Aspect: 1.5 | Poisson: Yes
&MESH ID='mesh_11_1_0_0' IJK=4,5,6
      XB=6.000000,7.000000,5.000000,6.000000,0.000000,1.000000 /
! MESH Cell Qty: 120
! Cell Size: 0.250m · 0.200m · 0.167m | Aspect: 1.5 | Poisson: Yes
&MESH ID='mesh_12_0_0_0' IJK=4,5,6
      XB=10.000000,11.000000,0.000000,1.000000,0.000000,1.000000 /
! MESH Cell Qty: 120
! Cell Size: 0.250m · 0.200m · 0.167m | Aspect: 1.5 | Poisson: Yes
&MESH ID='mesh_12_0_1_0' IJK=4,5,6
      XB=10.000000,11.000000,1.000000,2.000000,0.000000,1.000000 /
! MESH Cell Qty: 120
! Cell Size: 0.250m · 0.200m · 0.167m | Aspect: 1.5 | Poisson: Yes
&MESH ID='mesh_12_1_0_0' IJK=4,5,6
      XB=11.000000,12.000000,0.000000,1.000000,0.000000,1.000000 /
! MESH Cell Qty: 120
! Cell Size: 0.250m · 0.200m · 0.167m | Aspect: 1.5 | Poisson: Yes
&MESH ID='mesh_12_1_1_0' IJK=4,5,6
      XB=11.000000,12.000000,1.000000,2.000000,0.000000,1.000000 /
! MESH Cell Qty: 120
! Cell Size: 0.250m · 0.200m · 0.167m | Aspect: 1.5 | Poisson: Yes
&MESH ID='mesh_12_2_0_0' IJK=4,5,6
      XB=12.000000,13.000000,0.000000,1.000000,0.000000,1.000000 /
! MESH Cell Qty: 120
! Cell Size: 0.250m · 0.200m · 0.167m | Aspect: 1.5 | Poisson: Yes
&MESH ID='mesh_12_2_1_0' IJK=4,5,6
      XB=12.000000,13.000000,1.000000,2.000000,0.000000,1.000000 /
! MESH Cell Qty: 120
! Cell Size: 0.250m · 0.200m · 0.167m | Aspect: 1.5 | Poisson: Yes
&MESH ID='mesh_12_3_0_0' IJK=4,5,6
      XB=13.000000,14.000000,0.000000,1.000000,0.000000,1.000000 /
! MESH Cell Qty: 120
! Cell Size: 0.250m · 0.200m · 0.167m | Aspect: 1.5 | Poisson: Yes
&MESH ID='mesh_12_3_1_0' IJK=4,5,6
      XB=13.000000,14.000000,1.000000,2.000000,0.000000,1.000000 /
! MESH Cell Qty: 120
! Cell Size: 0.250m · 0.200m · 0.167m | Aspect: 1.5 | Poisson: Yes
&MESH ID='mesh_13_0_0_0' IJK=4,5,6
      XB=15.000000,16.000000,5.000000,6.000000,0.000000,1.000000 /
! MESH Cell Qty: 120
! Cell Size: 0.250m · 0.200m · 0.167m | Aspect: 1.5 | Poisson: Yes
&MESH ID='mesh_13_0_0_1' IJK=4,5,6
      XB=15.000000,16.000000,5.000000,6.000000,1.000000,2.000000 /
! MESH Cell Qty: 120
! Cell Size: 0.250m · 0.200m · 0.167m | Aspect: 1.5 | Poisson: Yes
&MESH ID='mesh_13_0_1_0' IJK=4,5,6
      XB=15.000000,16.000000,6.000000,7.000000,0.000000,1.000000 /
! MESH Cell Qty: 120
! Cell Size: 0.250m · 0.200m · 0.167m | Aspect: 1.5 | Poisson: Yes
&MESH ID='mesh_13_0_1_1' IJK=4,5,6
      XB=15.000000,16.000000,6.000000,7.000000,1.000000,2.000000 /
! MESH Cell Qty: 120
! Cell Size: 0.250m · 0.200m · 0.167m | Aspect: 1.5 | Poisson: Yes
&MESH ID='mesh_13_0_2_0' IJK=4,5,6
      XB=15.000000,16.000000,7.000000,8.000000,0.000000,1.000000 /
! MESH Cell Qty: 120
! Cell Size: 0.250m · 0.200m · 0.167m | Aspect: 1.5 | Poisson: Yes
&MESH ID='mesh_13_0_2_1' IJK=4,5,6
      XB=15.000000,16.000000,7.000000,8.000000,1.000000,2.000000 /
! MESH Cell Qty: 120
! Cell Size: 0.250m · 0.200m · 0.167m | Aspect: 1.5 | Poisson: Yes
&MESH ID='mesh_13_0_3_0' IJK=4,5,6
      XB=15.000000,16.000000,8.000000,9.000000,0.000000,1.000000 /
! MESH Cell Qty: 120
! Cell Size: 0.250m · 0.200m · 0.167m | Aspect: 1.5 | Poisson: Yes
&MESH ID='mesh_13_0_3_1' IJK=4,5,6
      XB=15.000000,16.000000,8.000000,9.000000,1.000000,2.000000 /
! MESH Cell Qty: 120
! Cell Size: 0.250m · 0.200m · 0.167m | Aspect: 1.5 | Poisson: Yes
&MESH ID='mesh_13_1_0_0' IJK=4,5,6
      XB=16.000000,17.000000,5.000000,6.000000,0.000000,1.000000 /
! MESH Cell Qty: 120
! Cell Size: 0.250m · 0.200m · 0.167m | Aspect: 1.5 | Poisson: Yes
&MESH ID='mesh_13_1_0_1' IJK=4,5,6
      XB=16.000000,17.000000,5.000000,6.000000,1.000000,2.000000 /
! MESH Cell Qty: 120
! Cell Size: 0.250m · 0.200m · 0.167m | Aspect: 1.5 | Poisson: Yes
&MESH ID='mesh_13_1_1_0' IJK=4,5,6
      XB=16.000000,17.000000,6.000000,7.000000,0.000000,1.000000 /
! MESH Cell Qty: 120
! Cell Size: 0.250m · 0.200m · 0.167m | Aspect: 1.5 | Poisson: Yes
&MESH ID='mesh_13_1_1_1' IJK=4,5,6
      XB=16.000000,17.000000,6.000000,7.000000,1.000000,2.000000 /
! MESH Cell Qty: 120
! Cell Size: 0.250m · 0.200m · 0.167m | Aspect: 1.5 | Poisson: Yes
&MESH ID='mesh_13_1_2_0' IJK=4,5,6
      XB=16.000000,17.000000,7.000000,8.000000,0.000000,1.000000 /
! MESH Cell Qty: 120
! Cell Size: 0.250m · 0.200m · 0.167m | Aspect: 1.5 | Poisson: Yes
&MESH ID='mesh_13_1_2_1' IJK=4,5,6
      XB=16.000000,17.000000,7.000000,8.000000,1.000000,2.000000 /
! MESH Cell Qty: 120
! Cell Size: 0.250m · 0.200m · 0.167m | Aspect: 1.5 | Poisson: Yes
&MESH ID='mesh_13_1_3_0' IJK=4,5,6
      XB=16.000000,17.000000,8.000000,9.000000,0.000000,1.000000 /
! MESH Cell Qty: 120
! Cell Size: 0.250m · 0.200m · 0.167m | Aspect: 1.5 | Poisson: Yes
&MESH ID='mesh_13_1_3_1' IJK=4,5,6
      XB=16.000000,17.000000,8.000000,9.000000,1.000000,2.000000 /
! MESH Cell Qty: 120
! Cell Size: 0.250m · 0.200m · 0.167m | Aspect: 1.5 | Poisson: Yes
&MESH ID='mesh_13_2_0_0' IJK=4,5,6
      XB=17.000000,18.000000,5.000000,6.000000,0.000000,1.000000 /
! MESH Cell Qty: 120
! Cell Size: 0.250m · 0.200m · 0.167m | Aspect: 1.5 | Poisson: Yes
&MESH ID='mesh_13_2_0_1' IJK=4,5,6
      XB=17.000000,18.000000,5.000000,6.000000,1.000000,2.000000 /
! MESH Cell Qty: 120
! Cell Size: 0.250m · 0.200m · 0.167m | Aspect: 1.5 | Poisson: Yes
&MESH ID='mesh_13_2_1_0' IJK=4,5,6
      XB=17.000000,18.000000,6.000000,7.000000,0.000000,1.000000 /
! MESH Cell Qty: 120
! Cell Size: 0.250m · 0.200m · 0.167m | Aspect: 1.5 | Poisson: Yes
&MESH ID='mesh_13_2_1_1' IJK=4,5,6
      XB=17.000000,18.000000,6.000000,7.000000,1.000000,2.000000 /
! MESH Cell Qty: 120
! Cell Size: 0.250m · 0.200m · 0.167m | Aspect: 1.5 | Poisson: Yes
&MESH ID='mesh_13_2_2_0' IJK=4,5,6
      XB=17.000000,18.000000,7.000000,8.000000,0.000000,1.000000 /
! MESH Cell Qty: 120
! Cell Size: 0.250m · 0.200m · 0.167m | Aspect: 1.5 | Poisson: Yes
&MESH ID='mesh_13_2_2_1' IJK=4,5,6
      XB=17.000000,18.000000,7.000000,8.000000,1.000000,2.000000 /
! MESH Cell Qty: 120
! Cell Size: 0.250m · 0.200m · 0.167m | Aspect: 1.5 | Poisson: Yes
&MESH ID='mesh_13_2_3_0' IJK=4,5,6
      XB=17.000000,18.000000,8.000000,9.000000,0.000000,1.000000 /
! MESH Cell Qty: 120
! Cell Size: 0.250m · 0.200m · 0.167m | Aspect: 1.5 | Poisson: Yes
&MESH ID='mesh_13_2_3_1' IJK=4,5,6
      XB=17.000000,18.000000,8.000000,9.000000,1.000000,2.000000 /
! MESH Cell Qty: 120
! Cell Size: 0.250m · 0.200m · 0.167m | Aspect: 1.5 | Poisson: Yes
&MESH ID='mesh_13_3_0_0' IJK=4,5,6
      XB=18.000000,19.000000,5.000000,6.000000,0.000000,1.000000 /
! MESH Cell Qty: 120
! Cell Size: 0.250m · 0.200m · 0.167m | Aspect: 1.5 | Poisson: Yes
&MESH ID='mesh_13_3_0_1' IJK=4,5,6
      XB=18.000000,19.000000,5.000000,6.000000,1.000000,2.000000 /
! MESH Cell Qty: 120
! Cell Size: 0.250m · 0.200m · 0.167m | Aspect: 1.5 | Poisson: Yes
&MESH ID='mesh_13_3_1_0' IJK=4,5,6
      XB=18.000000,19.000000,6.000000,7.000000,0.000000,1.000000 /
! MESH Cell Qty: 120
! Cell Size: 0.250m · 0.200m · 0.167m | Aspect: 1.5 | Poisson: Yes
&MESH ID='mesh_13_3_1_1' IJK=4,5,6
      XB=18.000000,19.000000,6.000000,7.000000,1.000000,2.000000 /
! MESH Cell Qty: 120
! Cell Size: 0.250m · 0.200m · 0.167m | Aspect: 1.5 | Poisson: Yes
&MESH ID='mesh_13_3_2_0' IJK=4,5,6
      XB=18.000000,19.000000,7.000000,8.000000,0.000000,1.000000 /
! MESH Cell Qty: 120
! Cell Size: 0.250m · 0.200m · 0.167m | Aspect: 1.5 | Poisson: Yes
&MESH ID='mesh_13_3_2_1' IJK=4,5,6
      XB=18.000000,19.000000,7.000000,8.000000,1.000000,2.000000 /
! MESH Cell Qty: 120
! Cell Size: 0.250m · 0.200m · 0.167m | Aspect: 1.5 | Poisson: Yes
&MESH ID='mesh_13_3_3_0' IJK=4,5,6
      XB=18.000000,19.000000,8.000000,9.000000,0.000000,1.000000 /
! MESH Cell Qty: 120
! Cell Size: 0.250m · 0.200m · 0.167m | Aspect: 1.5 | Poisson: Yes
&MESH ID='mesh_13_3_3_1' IJK=4,5,6
      XB=18.000000,19.000000,8.000000,9.000000,1.000000,2.000000 /
! MESH Cell Qty: 120
! Cell Size: 0.250m · 0.200m · 0.167m | Aspect: 1.5 | Poisson: Yes
&MESH ID='mesh_21_0_0_0' IJK=4,5,6
      XB=5.000000,6.000000,10.000000,11.000000,0.000000,1.000000 /
! MESH Cell Qty: 120
! Cell Size: 0.250m · 0.200m · 0.167m | Aspect: 1.5 | Poisson: Yes
&MESH ID='mesh_21_3_0_0' IJK=4,5,6
      XB=8.000000,9.000000,10.000000,11.000000,0.000000,1.000000 /
! MESH Cell Qty: 120
! Cell Size: 0.250m · 0.200m · 0.167m | Aspect: 1.5 | Poisson: Yes
&MESH ID='mesh_22_0_0_0' IJK=4,5,6
      XB=10.000000,11.000000,10.000000,11.000000,0.000000,1.000000 /
! MESH Cell Qty: 120
! Cell Size: 0.250m · 0.200m · 0.167m | Aspect: 1.5 | Poisson: Yes
&MESH ID='mesh_22_0_3_0' IJK=4,5,6
      XB=10.000000,11.000000,13.000000,14.000000,0.000000,1.000000 /
! MESH Cell Qty: 120
! Cell Size: 0.250m · 0.200m · 0.167m | Aspect: 1.5 | Poisson: Yes
&MESH ID='mesh_22_1_0_0' IJK=4,5,6
      XB=11.000000,12.000000,10.000000,11.000000,0.000000,1.000000 /
! MESH Cell Qty: 120
! Cell Size: 0.250m · 0.200m · 0.167m | Aspect: 1.5 | Poisson: Yes
&MESH ID='mesh_22_1_3_0' IJK=4,5,6
      XB=11.000000,12.000000,13.000000,14.000000,0.000000,1.000000 /
! MESH Cell Qty: 120
! Cell Size: 0.250m · 0.200m · 0.167m | Aspect: 1.5 | Poisson: Yes
&MESH ID='mesh_22_2_0_0' IJK=4,5,6
      XB=12.000000,13.000000,10.000000,11.000000,0.000000,1.000000 /
! MESH Cell Qty: 120
! Cell Size: 0.250m · 0.200m · 0.167m | Aspect: 1.5 | Poisson: Yes
&MESH ID='mesh_22_2_3_0' IJK=4,5,6
      XB=12.000000,13.000000,13.000000,14.000000,0.000000,1.000000 /
! MESH Cell Qty: 120
! Cell Size: 0.250m · 0.200m · 0.167m | Aspect: 1.5 | Poisson: Yes
&MESH ID='mesh_22_3_0_0' IJK=4,5,6
      XB=13.000000,14.000000,10.000000,11.000000,0.000000,1.000000 /
! MESH Cell Qty: 120
! Cell Size: 0.250m · 0.200m · 0.167m | Aspect: 1.5 | Poisson: Yes
&MESH ID='mesh_22_3_3_0' IJK=4,5,6
      XB=13.000000,14.000000,13.000000,14.000000,0.000000,1.000000 /
! MESH Cell Qty: 120
! Cell Size: 0.250m · 0.200m · 0.167m | Aspect: 1.5 | Poisson: Yes
&MESH ID='mesh_23_0_0_0' IJK=4,5,6
      XB=15.000000,16.000000,10.000000,11.000000,0.000000,1.000000 /
! MESH Cell Qty: 120
! Cell Size: 0.250m · 0.200m · 0.167m | Aspect: 1.5 | Poisson: Yes
&MESH ID='mesh_23_0_0_3' IJK=4,5,6
      XB=15.000000,16.000000,10.000000,11.000000,3.000000,4.000000 /
! MESH Cell Qty: 120
! Cell Size: 0.250m · 0.200m · 0.167m | Aspect: 1.5 | Poisson: Yes
&MESH ID='mesh_23_0_1_0' IJK=4,5,6
      XB=15.000000,16.000000,11.000000,12.000000,0.000000,1.000000 /
! MESH Cell Qty: 120
! Cell Size: 0.250m · 0.200m · 0.167m | Aspect: 1.5 | Poisson: Yes
&MESH ID='mesh_23_0_1_3' IJK=4,5,6
      XB=15.000000,16.000000,11.000000,12.000000,3.000000,4.000000 /
! MESH Cell Qty: 120
! Cell Size: 0.250m · 0.200m · 0.167m | Aspect: 1.5 | Poisson: Yes
&MESH ID='mesh_23_0_2_0' IJK=4,5,6
      XB=15.000000,16.000000,12.000000,13.000000,0.000000,1.000000 /
! MESH Cell Qty: 120
! Cell Size: 0.250m · 0.200m · 0.167m | Aspect: 1.5 | Poisson: Yes
&MESH ID='mesh_23_0_2_3' IJK=4,5,6
      XB=15.000000,16.000000,12.000000,13.000000,3.000000,4.000000 /
! MESH Cell Qty: 120
! Cell Size: 0.250m · 0.200m · 0.167m | Aspect: 1.5 | Poisson: Yes
&MESH ID='mesh_23_0_3_0' IJK=4,5,6
      XB=15.000000,16.000000,13.000000,14.000000,0.000000,1.000000 /
! MESH Cell Qty: 120
! Cell Size: 0.250m · 0.200m · 0.167m | Aspect: 1.5 | Poisson: Yes
&MESH ID='mesh_23_0_3_3' IJK=4,5,6
      XB=15.000000,16.000000,13.000000,14.000000,3.000000,4.000000 /
! MESH Cell Qty: 120
! Cell Size: 0.250m · 0.200m · 0.167m | Aspect: 1.5 | Poisson: Yes
&MESH ID='mesh_23_1_0_0' IJK=4,5,6
      XB=16.000000,17.000000,10.000000,11.000000,0.000000,1.000000 /
! MESH Cell Qty: 120
! Cell Size: 0.250m · 0.200m · 0.167m | Aspect: 1.5 | Poisson: Yes
&MESH ID='mesh_23_1_0_3' IJK=4,5,6
      XB=16.000000,17.000000,10.000000,11.000000,3.000000,4.000000 /
! MESH Cell Qty: 120
! Cell Size: 0.250m · 0.200m · 0.167m | Aspect: 1.5 | Poisson: Yes
&MESH ID='mesh_23_1_1_0' IJK=4,5,6
      XB=16.000000,17.000000,11.000000,12.000000,0.000000,1.000000 /
! MESH Cell Qty: 120
! Cell Size: 0.250m · 0.200m · 0.167m | Aspect: 1.5 | Poisson: Yes
&MESH ID='mesh_23_1_1_3' IJK=4,5,6
      XB=16.000000,17.000000,11.000000,12.000000,3.000000,4.000000 /
! MESH Cell Qty: 120
! Cell Size: 0.250m · 0.200m · 0.167m | Aspect: 1.5 | Poisson: Yes
&MESH ID='mesh_23_1_2_0' IJK=4,5,6
      XB=16.000000,17.000000,12.000000,13.000000,0.000000,1.000000 /
! MESH Cell Qty: 120
! Cell Size: 0.250m · 0.200m · 0.167m | Aspect: 1.5 | Poisson: Yes
&MESH ID='mesh_23_1_2_3' IJK=4,5,6
      XB=16.000000,17.000000,12.000000,13.000000,3.000000,4.000000 /
! MESH Cell Qty: 120
! Cell Size: 0.250m · 0.200m · 0.167m | Aspect: 1.5 | Poisson: Yes
&MESH ID='mesh_23_1_3_0' IJK=4,5,6
      XB=16.000000,17.000000,13.000000,14.000000,0.000000,1.000000 /
! MESH Cell Qty: 120
! Cell Size: 0.250m · 0.200m · 0.167m | Aspect: 1.5 | Poisson: Yes
&MESH ID='mesh_23_1_3_3' IJK=4,5,6
      XB=16.000000,17.000000,13.000000,14.000000,3.000000,4.000000 /
! MESH Cell Qty: 120
! Cell Size: 0.250m · 0.200m · 0.167m | Aspect: 1.5 | Poisson: Yes
&MESH ID='mesh_23_2_0_0' IJK=4,5,6
      XB=17.000000,18.000000,10.000000,11.000000,0.000000,1.000000 /
! MESH Cell Qty: 120
! Cell Size: 0.250m · 0.200m · 0.167m | Aspect: 1.5 | Poisson: Yes
&MESH ID='mesh_23_2_0_3' IJK=4,5,6
      XB=17.000000,18.000000,10.000000,11.000000,3.000000,4.000000 /
! MESH Cell Qty: 120
! Cell Size: 0.250m · 0.200m · 0.167m | Aspect: 1.5 | Poisson: Yes
&MESH ID='mesh_23_2_1_0' IJK=4,5,6
      XB=17.000000,18.000000,11.000000,12.000000,0.000000,1.000000 /
! MESH Cell Qty: 120