! Generated by BlenderFDS 6.0.0 on Blender 3.2.0 Beta
! Date: Sat, 21 May 2022, 17:31:02
! File: /tmp/tmpodevzx2j/mesh_mult.blend

--- Case from Blender Scene: <mesh_mult> | View Layer: <ViewLayer>

&HEAD CHID='mesh_mult' /
&TIME T_END=0.1 /

--- Computational domain | MPI Processes: 1 | MESH Qty: 329 | Cell Qty: 39480

-- MPI Process: <0> | MESH Qty: 329 | Cell Qty: 39480
Cell Qty: 120 | Size: 0.250·0.200·0.167m | Aspect: 1.5 | Poisson: Yes
&MESH ID='mesh_00' IJK=4,5,6 XB=0.0000,1.0000,0.0000,1.0000,0.0000,1.0000
      MPI_PROCESS=0 /
Cell Qty: 120 | Size: 0.250·0.200·0.167m | Aspect: 1.5 | Poisson: Yes
&MESH ID='mesh_01_i0_j0_k0' IJK=4,5,6
      XB=5.0000,6.0000,0.0000,1.0000,0.0000,1.0000 MPI_PROCESS=0 /
Cell Qty: 120 | Size: 0.250·0.200·0.167m | Aspect: 1.5 | Poisson: Yes
&MESH ID='mesh_01_i1_j0_k0' IJK=4,5,6
      XB=6.0000,7.0000,0.0000,1.0000,0.0000,1.0000 MPI_PROCESS=0 /
Cell Qty: 120 | Size: 0.250·0.200·0.167m | Aspect: 1.5 | Poisson: Yes
&MESH ID='mesh_01_i2_j0_k0' IJK=4,5,6
      XB=7.0000,8.0000,0.0000,1.0000,0.0000,1.0000 MPI_PROCESS=0 /
Cell Qty: 120 | Size: 0.250·0.200·0.167m | Aspect: 1.5 | Poisson: Yes
&MESH ID='mesh_01_i3_j0_k0' IJK=4,5,6
      XB=8.0000,9.0000,0.0000,1.0000,0.0000,1.0000 MPI_PROCESS=0 /
Cell Qty: 120 | Size: 0.250·0.200·0.167m | Aspect: 1.5 | Poisson: Yes
&MESH ID='mesh_02_i0_j0_k0' IJK=4,5,6
      XB=10.0000,11.0000,0.0000,1.0000,0.0000,1.0000 MPI_PROCESS=0 /
Cell Qty: 120 | Size: 0.250·0.200·0.167m | Aspect: 1.5 | Poisson: Yes
&MESH ID='mesh_02_i0_j1_k0' IJK=4,5,6
      XB=10.0000,11.0000,1.0000,2.0000,0.0000,1.0000 MPI_PROCESS=0 /
Cell Qty: 120 | Size: 0.250·0.200·0.167m | Aspect: 1.5 | Poisson: Yes
&MESH ID='mesh_02_i0_j2_k0' IJK=4,5,6
      XB=10.0000,11.0000,2.0000,3.0000,0.0000,1.0000 MPI_PROCESS=0 /
Cell Qty: 120 | Size: 0.250·0.200·0.167m | Aspect: 1.5 | Poisson: Yes
&MESH ID='mesh_02_i0_j3_k0' IJK=4,5,6
      XB=10.0000,11.0000,3.0000,4.0000,0.0000,1.0000 MPI_PROCESS=0 /
Cell Qty: 120 | Size: 0.250·0.200·0.167m | Aspect: 1.5 | Poisson: Yes
&MESH ID='mesh_02_i1_j0_k0' IJK=4,5,6
      XB=11.0000,12.0000,0.0000,1.0000,0.0000,1.0000 MPI_PROCESS=0 /
Cell Qty: 120 | Size: 0.250·0.200·0.167m | Aspect: 1.5 | Poisson: Yes
&MESH ID='mesh_02_i1_j1_k0' IJK=4,5,6
      XB=11.0000,12.0000,1.0000,2.0000,0.0000,1.0000 MPI_PROCESS=0 /
Cell Qty: 120 | Size: 0.250·0.200·0.167m | Aspect: 1.5 | Poisson: Yes
&MESH ID='mesh_02_i1_j2_k0' IJK=4,5,6
      XB=11.0000,12.0000,2.0000,3.0000,0.0000,1.0000 MPI_PROCESS=0 /
Cell Qty: 120 | Size: 0.250·0.200·0.167m | Aspect: 1.5 | Poisson: Yes
&MESH ID='mesh_02_i1_j3_k0' IJK=4,5,6
      XB=11.0000,12.0000,3.0000,4.0000,0.0000,1.0000 MPI_PROCESS=0 /
Cell Qty: 120 | Size: 0.250·0.200·0.167m | Aspect: 1.5 | Poisson: Yes
&MESH ID='mesh_02_i2_j0_k0' IJK=4,5,6
      XB=12.0000,13.0000,0.0000,1.0000,0.0000,1.0000 MPI_PROCESS=0 /
Cell Qty: 120 | Size: 0.250·0.200·0.167m | Aspect: 1.5 | Poisson: Yes
&MESH ID='mesh_02_i2_j1_k0' IJK=4,5,6
      XB=12.0000,13.0000,1.0000,2.0000,0.0000,1.0000 MPI_PROCESS=0 /
Cell Qty: 120 | Size: 0.250·0.200·0.167m | Aspect: 1.5 | Poisson: Yes
&MESH ID='mesh_02_i2_j2_k0' IJK=4,5,6
      XB=12.0000,13.0000,2.0000,3.0000,0.0000,1.0000 MPI_PROCESS=0 /
Cell Qty: 120 | Size: 0.250·0.200·0.167m | Aspect: 1.5 | Poisson: Yes
&MESH ID='mesh_02_i2_j3_k0' IJK=4,5,6
      XB=12.0000,13.0000,3.0000,4.0000,0.0000,1.0000 MPI_PROCESS=0 /
Cell Qty: 120 | Size: 0.250·0.200·0.167m | Aspect: 1.5 | Poisson: Yes
&MESH ID='mesh_02_i3_j0_k0' IJK=4,5,6
      XB=13.0000,14.0000,0.0000,1.0000,0.0000,1.0000 MPI_PROCESS=0 /
Cell Qty: 120 | Size: 0.250·0.200·0.167m | Aspect: 1.5 | Poisson: Yes
&MESH ID='mesh_02_i3_j1_k0' IJK=4,5,6
      XB=13.0000,14.0000,1.0000,2.0000,0.0000,1.0000 MPI_PROCESS=0 /
Cell Qty: 120 | Size: 0.250·0.200·0.167m | Aspect: 1.5 | Poisson: Yes
&MESH ID='mesh_02_i3_j2_k0' IJK=4,5,6
      XB=13.0000,14.0000,2.0000,3.0000,0.0000,1.0000 MPI_PROCESS=0 /
Cell Qty: 120 | Size: 0.250·0.200·0.167m | Aspect: 1.5 | Poisson: Yes
&MESH ID='mesh_02_i3_j3_k0' IJK=4,5,6
      XB=13.0000,14.0000,3.0000,4.0000,0.0000,1.0000 MPI_PROCESS=0 /
Cell Qty: 120 | Size: 0.250·0.200·0.167m | Aspect: 1.5 | Poisson: Yes
&MESH ID='mesh_03_i0_j0_k0' IJK=4,5,6
      XB=15.0000,16.0000,0.0000,1.0000,0.0000,1.0000 MPI_PROCESS=0 /
Cell Qty: 120 | Size: 0.250·0.200·0.167m | Aspect: 1.5 | Poisson: Yes
&MESH ID='mesh_03_i0_j0_k1' IJK=4,5,6
      XB=15.0000,16.0000,0.0000,1.0000,1.0000,2.0000 MPI_PROCESS=0 /
Cell Qty: 120 | Size: 0.250·0.200·0.167m | Aspect: 1.5 | Poisson: Yes
&MESH ID='mesh_03_i0_j0_k2' IJK=4,5,6
      XB=15.0000,16.0000,0.0000,1.0000,2.0000,3.0000 MPI_PROCESS=0 /
Cell Qty: 120 | Size: 0.250·0.200·0.167m | Aspect: 1.5 | Poisson: Yes
&MESH ID='mesh_03_i0_j0_k3' IJK=4,5,6
      XB=15.0000,16.0000,0.0000,1.0000,3.0000,4.0000 MPI_PROCESS=0 /
Cell Qty: 120 | Size: 0.250·0.200·0.167m | Aspect: 1.5 | Poisson: Yes
&MESH ID='mesh_03_i0_j1_k0' IJK=4,5,6
      XB=15.0000,16.0000,1.0000,2.0000,0.0000,1.0000 MPI_PROCESS=0 /
Cell Qty: 120 | Size: 0.250·0.200·0.167m | Aspect: 1.5 | Poisson: Yes
&MESH ID='mesh_03_i0_j1_k1' IJK=4,5,6
      XB=15.0000,16.0000,1.0000,2.0000,1.0000,2.0000 MPI_PROCESS=0 /
Cell Qty: 120 | Size: 0.250·0.200·0.167m | Aspect: 1.5 | Poisson: Yes
&MESH ID='mesh_03_i0_j1_k2' IJK=4,5,6
      XB=15.0000,16.0000,1.0000,2.0000,2.0000,3.0000 MPI_PROCESS=0 /
Cell Qty: 120 | Size: 0.250·0.200·0.167m | Aspect: 1.5 | Poisson: Yes
&MESH ID='mesh_03_i0_j1_k3' IJK=4,5,6
      XB=15.0000,16.0000,1.0000,2.0000,3.0000,4.0000 MPI_PROCESS=0 /
Cell Qty: 120 | Size: 0.250·0.200·0.167m | Aspect: 1.5 | Poisson: Yes
&MESH ID='mesh_03_i0_j2_k0' IJK=4,5,6
      XB=15.0000,16.0000,2.0000,3.0000,0.0000,1.0000 MPI_PROCESS=0 /
Cell Qty: 120 | Size: 0.250·0.200·0.167m | Aspect: 1.5 | Poisson: Yes
&MESH ID='mesh_03_i0_j2_k1' IJK=4,5,6
      XB=15.0000,16.0000,2.0000,3.0000,1.0000,2.0000 MPI_PROCESS=0 /
Cell Qty: 120 | Size: 0.250·0.200·0.167m | Aspect: 1.5 | Poisson: Yes
&MESH ID='mesh_03_i0_j2_k2' IJK=4,5,6
      XB=15.0000,16.0000,2.0000,3.0000,2.0000,3.0000 MPI_PROCESS=0 /
Cell Qty: 120 | Size: 0.250·0.200·0.167m | Aspect: 1.5 | Poisson: Yes
&MESH ID='mesh_03_i0_j2_k3' IJK=4,5,6
      XB=15.0000,16.0000,2.0000,3.0000,3.0000,4.0000 MPI_PROCESS=0 /
Cell Qty: 120 | Size: 0.250·0.200·0.167m | Aspect: 1.5 | Poisson: Yes
&MESH ID='mesh_03_i0_j3_k0' IJK=4,5,6
      XB=15.0000,16.0000,3.0000,4.0000,0.0000,1.0000 MPI_PROCESS=0 /
Cell Qty: 120 | Size: 0.250·0.200·0.167m | Aspect: 1.5 | Poisson: Yes
&MESH ID='mesh_03_i0_j3_k1' IJK=4,5,6
      XB=15.0000,16.0000,3.0000,4.0000,1.0000,2.0000 MPI_PROCESS=0 /
Cell Qty: 120 | Size: 0.250·0.200·0.167m | Aspect: 1.5 | Poisson: Yes
&MESH ID='mesh_03_i0_j3_k2' IJK=4,5,6
      XB=15.0000,16.0000,3.0000,4.0000,2.0000,3.0000 MPI_PROCESS=0 /
Cell Qty: 120 | Size: 0.250·0.200·0.167m | Aspect: 1.5 | Poisson: Yes
&MESH ID='mesh_03_i0_j3_k3' IJK=4,5,6
      XB=15.0000,16.0000,3.0000,4.0000,3.0000,4.0000 MPI_PROCESS=0 /
Cell Qty: 120 | Size: 0.250·0.200·0.167m | Aspect: 1.5 | Poisson: Yes
&MESH ID='mesh_03_i1_j0_k0' IJK=4,5,6
      XB=16.0000,17.0000,0.0000,1.0000,0.0000,1.0000 MPI_PROCESS=0 /
Cell Qty: 120 | Size: 0.250·0.200·0.167m | Aspect: 1.5 | Poisson: Yes
&MESH ID='mesh_03_i1_j0_k1' IJK=4,5,6
      XB=16.0000,17.0000,0.0000,1.0000,1.0000,2.0000 MPI_PROCESS=0 /
Cell Qty: 120 | Size: 0.250·0.200·0.167m | Aspect: 1.5 | Poisson: Yes
&MESH ID='mesh_03_i1_j0_k2' IJK=4,5,6
      XB=16.0000,17.0000,0.0000,1.0000,2.0000,3.0000 MPI_PROCESS=0 /
Cell Qty: 120 | Size: 0.250·0.200·0.167m | Aspect: 1.5 | Poisson: Yes
&MESH ID='mesh_03_i1_j0_k3' IJK=4,5,6
      XB=16.0000,17.0000,0.0000,1.0000,3.0000,4.0000 MPI_PROCESS=0 /
Cell Qty: 120 | Size: 0.250·0.200·0.167m | Aspect: 1.5 | Poisson: Yes
&MESH ID='mesh_03_i1_j1_k0' IJK=4,5,6
      XB=16.0000,17.0000,1.0000,2.0000,0.0000,1.0000 MPI_PROCESS=0 /
Cell Qty: 120 | Size: 0.250·0.200·0.167m | Aspect: 1.5 | Poisson: Yes
&MESH ID='mesh_03_i1_j1_k1' IJK=4,5,6
      XB=16.0000,17.0000,1.0000,2.0000,1.0000,2.0000 MPI_PROCESS=0 /
Cell Qty: 120 | Size: 0.250·0.200·0.167m | Aspect: 1.5 | Poisson: Yes
&MESH ID='mesh_03_i1_j1_k2' IJK=4,5,6
      XB=16.0000,17.0000,1.0000,2.0000,2.0000,3.0000 MPI_PROCESS=0 /
Cell Qty: 120 | Size: 0.250·0.200·0.167m | Aspect: 1.5 | Poisson: Yes
&MESH ID='mesh_03_i1_j1_k3' IJK=4,5,6
      XB=16.0000,17.0000,1.0000,2.0000,3.0000,4.0000 MPI_PROCESS=0 /
Cell Qty: 120 | Size: 0.250·0.200·0.167m | Aspect: 1.5 | Poisson: Yes
&MESH ID='mesh_03_i1_j2_k0' IJK=4,5,6
      XB=16.0000,17.0000,2.0000,3.0000,0.0000,1.0000 MPI_PROCESS=0 /
Cell Qty: 120 | Size: 0.250·0.200·0.167m | Aspect: 1.5 | Poisson: Yes
&MESH ID='mesh_03_i1_j2_k1' IJK=4,5,6
      XB=16.0000,17.0000,2.0000,3.0000,1.0000,2.0000 MPI_PROCESS=0 /
Cell Qty: 120 | Size: 0.250·0.200·0.167m | Aspect: 1.5 | Poisson: Yes
&MESH ID='mesh_03_i1_j2_k2' IJK=4,5,6
      XB=16.0000,17.0000,2.0000,3.0000,2.0000,3.0000 MPI_PROCESS=0 /
Cell Qty: 120 | Size: 0.250·0.200·0.167m | Aspect: 1.5 | Poisson: Yes
&MESH ID='mesh_03_i1_j2_k3' IJK=4,5,6
      XB=16.0000,17.0000,2.0000,3.0000,3.0000,4.0000 MPI_PROCESS=0 /
Cell Qty: 120 | Size: 0.250·0.200·0.167m | Aspect: 1.5 | Poisson: Yes
&MESH ID='mesh_03_i1_j3_k0' IJK=4,5,6
      XB=16.0000,17.0000,3.0000,4.0000,0.0000,1.0000 MPI_PROCESS=0 /
Cell Qty: 120 | Size: 0.250·0.200·0.167m | Aspect: 1.5 | Poisson: Yes
&MESH ID='mesh_03_i1_j3_k1' IJK=4,5,6
      XB=16.0000,17.0000,3.0000,4.0000,1.0000,2.0000 MPI_PROCESS=0 /
Cell Qty: 120 | Size: 0.250·0.200·0.167m | Aspect: 1.5 | Poisson: Yes
&MESH ID='mesh_03_i1_j3_k2' IJK=4,5,6
      XB=16.0000,17.0000,3.0000,4.0000,2.0000,3.0000 MPI_PROCESS=0 /
Cell Qty: 120 | Size: 0.250·0.200·0.167m | Aspect: 1.5 | Poisson: Yes
&MESH ID='mesh_03_i1_j3_k3' IJK=4,5,6
      XB=16.0000,17.0000,3.0000,4.0000,3.0000,4.0000 MPI_PROCESS=0 /
Cell Qty: 120 | Size: 0.250·0.200·0.167m | Aspect: 1.5 | Poisson: Yes
&MESH ID='mesh_03_i2_j0_k0' IJK=4,5,6
      XB=17.0000,18.0000,0.0000,1.0000,0.0000,1.0000 MPI_PROCESS=0 /
Cell Qty: 120 | Size: 0.250·0.200·0.167m | Aspect: 1.5 | Poisson: Yes
&MESH ID='mesh_03_i2_j0_k1' IJK=4,5,6
      XB=17.0000,18.0000,0.0000,1.0000,1.0000,2.0000 MPI_PROCESS=0 /
Cell Qty: 120 | Size: 0.250·0.200·0.167m | Aspect: 1.5 | Poisson: Yes
&MESH ID='mesh_03_i2_j0_k2' IJK=4,5,6
      XB=17.0000,18.0000,0.0000,1.0000,2.0000,3.0000 MPI_PROCESS=0 /
Cell Qty: 120 | Size: 0.250·0.200·0.167m | Aspect: 1.5 | Poisson: Yes
&MESH ID='mesh_03_i2_j0_k3' IJK=4,5,6
      XB=17.0000,18.0000,0.0000,1.0000,3.0000,4.0000 MPI_PROCESS=0 /
Cell Qty: 120 | Size: 0.250·0.200·0.167m | Aspect: 1.5 | Poisson: Yes
&MESH ID='mesh_03_i2_j1_k0' IJK=4,5,6
      XB=17.0000,18.0000,1.0000,2.0000,0.0000,1.0000 MPI_PROCESS=0 /
Cell Qty: 120 | Size: 0.250·0.200·0.167m | Aspect: 1.5 | Poisson: Yes
&MESH ID='mesh_03_i2_j1_k1' IJK=4,5,6
      XB=17.0000,18.0000,1.0000,2.0000,1.0000,2.0000 MPI_PROCESS=0 /
Cell Qty: 120 | Size: 0.250·0.200·0.167m | Aspect: 1.5 | Poisson: Yes
&MESH ID='mesh_03_i2_j1_k2' IJK=4,5,6
      XB=17.0000,18.0000,1.0000,2.0000,2.0000,3.0000 MPI_PROCESS=0 /
Cell Qty: 120 | Size: 0.250·0.200·0.167m | Aspect: 1.5 | Poisson: Yes
&MESH ID='mesh_03_i2_j1_k3' IJK=4,5,6
      XB=17.0000,18.0000,1.0000,2.0000,3.0000,4.0000 MPI_PROCESS=0 /
Cell Qty: 120 | Size: 0.250·0.200·0.167m | Aspect: 1.5 | Poisson: Yes
&MESH ID='mesh_03_i2_j2_k0' IJK=4,5,6
      XB=17.0000,18.0000,2.0000,3.0000,0.0000,1.0000 MPI_PROCESS=0 /
Cell Qty: 120 | Size: 0.250·0.200·0.167m | Aspect: 1.5 | Poisson: Yes
&MESH ID='mesh_03_i2_j2_k1' IJK=4,5,6
      XB=17.0000,18.0000,2.0000,3.0000,1.0000,2.0000 MPI_PROCESS=0 /
Cell Qty: 120 | Size: 0.250·0.200·0.167m | Aspect: 1.5 | Poisson: Yes
&MESH ID='mesh_03_i2_j2_k2' IJK=4,5,6
      XB=17.0000,18.0000,2.0000,3.0000,2.0000,3.0000 MPI_PROCESS=0 /
Cell Qty: 120 | Size: 0.250·0.200·0.167m | Aspect: 1.5 | Poisson: Yes
&MESH ID='mesh_03_i2_j2_k3' IJK=4,5,6
      XB=17.0000,18.0000,2.0000,3.0000,3.0000,4.0000 MPI_PROCESS=0 /
Cell Qty: 120 | Size: 0.250·0.200·0.167m | Aspect: 1.5 | Poisson: Yes
&MESH ID='mesh_03_i2_j3_k0' IJK=4,5,6
      XB=17.0000,18.0000,3.0000,4.0000,0.0000,1.0000 MPI_PROCESS=0 /
Cell Qty: 120 | Size: 0.250·0.200·0.167m | Aspect: 1.5 | Poisson: Yes
&MESH ID='mesh_03_i2_j3_k1' IJK=4,5,6
      XB=17.0000,18.0000,3.0000,4.0000,1.0000,2.0000 MPI_PROCESS=0 /
Cell Qty: 120 | Size: 0.250·0.200·0.167m | Aspect: 1.5 | Poisson: Yes
&MESH ID='mesh_03_i2_j3_k2' IJK=4,5,6
      XB=17.0000,18.0000,3.0000,4.0000,2.0000,3.0000 MPI_PROCESS=0 /
Cell Qty: 120 | Size: 0.250·0.200·0.167m | Aspect: 1.5 | Poisson: Yes
&MESH ID='mesh_03_i2_j3_k3' IJK=4,5,6
      XB=17.0000,18.0000,3.0000,4.0000,3.0000,4.0000 MPI_PROCESS=0 /
Cell Qty: 120 | Size: 0.250·0.200·0.167m | Aspect: 1.5 | Poisson: Yes
&MESH ID='mesh_03_i3_j0_k0' IJK=4,5,6
      XB=18.0000,19.0000,0.0000,1.0000,0.0000,1.0000 MPI_PROCESS=0 /
Cell Qty: 120 | Size: 0.250·0.200·0.167m | Aspect: 1.5 | Poisson: Yes
&MESH ID='mesh_03_i3_j0_k1' IJK=4,5,6
      XB=18.0000,19.0000,0.0000,1.0000,1.0000,2.0000 MPI_PROCESS=0 /
Cell Qty: 120 | Size: 0.250·0.200·0.167m | Aspect: 1.5 | Poisson: Yes
&MESH ID='mesh_03_i3_j0_k2' IJK=4,5,6
      XB=18.0000,19.0000,0.0000,1.0000,2.0000,3.0000 MPI_PROCESS=0 /
Cell Qty: 120 | Size: 0.250·0.200·0.167m | Aspect: 1.5 | Poisson: Yes
&MESH ID='mesh_03_i3_j0_k3' IJK=4,5,6
      XB=18.0000,19.0000,0.0000,1.0000,3.0000,4.0000 MPI_PROCESS=0 /
Cell Qty: 120 | Size: 0.250·0.200·0.167m | Aspect: 1.5 | Poisson: Yes
&MESH ID='mesh_03_i3_j1_k0' IJK=4,5,6
      XB=18.0000,19.0000,1.0000,2.0000,0.0000,1.0000 MPI_PROCESS=0 /
Cell Qty: 120 | Size: 0.250·0.200·0.167m | Aspect: 1.5 | Poisson: Yes
&MESH ID='mesh_03_i3_j1_k1' IJK=4,5,6
      XB=18.0000,19.0000,1.0000,2.0000,1.0000,2.0000 MPI_PROCESS=0 /
Cell Qty: 120 | Size: 0.250·0.200·0.167m | Aspect: 1.5 | Poisson: Yes
&MESH ID='mesh_03_i3_j1_k2' IJK=4,5,6
      XB=18.0000,19.0000,1.0000,2.0000,2.0000,3.0000 MPI_PROCESS=0 /
Cell Qty: 120 | Size: 0.250·0.200·0.167m | Aspect: 1.5 | Poisson: Yes
&MESH ID='mesh_03_i3_j1_k3' IJK=4,5,6
      XB=18.0000,19.0000,1.0000,2.0000,3.0000,4.0000 MPI_PROCESS=0 /
Cell Qty: 120 | Size: 0.250·0.200·0.167m | Aspect: 1.5 | Poisson: Yes
&MESH ID='mesh_03_i3_j2_k0' IJK=4,5,6
      XB=18.0000,19.0000,2.0000,3.0000,0.0000,1.0000 MPI_PROCESS=0 /
Cell Qty: 120 | Size: 0.250·0.200·0.167m | Aspect: 1.5 | Poisson: Yes
&MESH ID='mesh_03_i3_j2_k1' IJK=4,5,6
      XB=18.0000,19.0000,2.0000,3.0000,1.0000,2.0000 MPI_PROCESS=0 /
Cell Qty: 120 | Size: 0.250·0.200·0.167m | Aspect: 1.5 | Poisson: Yes
&MESH ID='mesh_03_i3_j2_k2' IJK=4,5,6
      XB=18.0000,19.0000,2.0000,3.0000,2.0000,3.0000 MPI_PROCESS=0 /
Cell Qty: 120 | Size: 0.250·0.200·0.167m | Aspect: 1.5 | Poisson: Yes
&MESH ID='mesh_03_i3_j2_k3' IJK=4,5,6
      XB=18.0000,19.0000,2.0000,3.0000,3.0000,4.0000 MPI_PROCESS=0 /
Cell Qty: 120 | Size: 0.250·0.200·0.167m | Aspect: 1.5 | Poisson: Yes
&MESH ID='mesh_03_i3_j3_k0' IJK=4,5,6
      XB=18.0000,19.0000,3.0000,4.0000,0.0000,1.0000 MPI_PROCESS=0 /
Cell Qty: 120 | Size: 0.250·0.200·0.167m | Aspect: 1.5 | Poisson: Yes
&MESH ID='mesh_03_i3_j3_k1' IJK=4,5,6
      XB=18.0000,19.0000,3.0000,4.0000,1.0000,2.0000 MPI_PROCESS=0 /
Cell Qty: 120 | Size: 0.250·0.200·0.167m | Aspect: 1.5 | Poisson: Yes
&MESH ID='mesh_03_i3_j3_k2' IJK=4,5,6
      XB=18.0000,19.0000,3.0000,4.0000,2.0000,3.0000 MPI_PROCESS=0 /
Cell Qty: 120 | Size: 0.250·0.200·0.167m | Aspect: 1.5 | Poisson: Yes
&MESH ID='mesh_03_i3_j3_k3' IJK=4,5,6
      XB=18.0000,19.0000,3.0000,4.0000,3.0000,4.0000 MPI_PROCESS=0 /
Cell Qty: 120 | Size: 0.250·0.200·0.167m | Aspect: 1.5 | Poisson: Yes
&MESH ID='mesh_11_i0_j0_k0' IJK=4,5,6
      XB=5.0000,6.0000,5.0000,6.0000,0.0000,1.0000 MPI_PROCESS=0 /
Cell Qty: 120 | Size: 0.250·0.200·0.167m | Aspect: 1.5 | Poisson: Yes
&MESH ID='mesh_11_i1_j0_k0' IJK=4,5,6
      XB=6.0000,7.0000,5.0000,6.0000,0.0000,1.0000 MPI_PROCESS=0 /
Cell Qty: 120 | Size: 0.250·0.200·0.167m | Aspect: 1.5 | Poisson: Yes
&MESH ID='mesh_12_i0_j0_k0' IJK=4,5,6
      XB=10.0000,11.0000,5.0000,6.0000,0.0000,1.0000 MPI_PROCESS=0 /
Cell Qty: 120 | Size: 0.250·0.200·0.167m | Aspect: 1.5 | Poisson: Yes
&MESH ID='mesh_12_i0_j1_k0' IJK=4,5,6
      XB=10.0000,11.0000,6.0000,7.0000,0.0000,1.0000 MPI_PROCESS=0 /
Cell Qty: 120 | Size: 0.250·0.200·0.167m | Aspect: 1.5 | Poisson: Yes
&MESH ID='mesh_12_i1_j0_k0' IJK=4,5,6
      XB=11.0000,12.0000,5.0000,6.0000,0.0000,1.0000 MPI_PROCESS=0 /
Cell Qty: 120 | Size: 0.250·0.200·0.167m | Aspect: 1.5 | Poisson: Yes
&MESH ID='mesh_12_i1_j1_k0' IJK=4,5,6
      XB=11.0000,12.0000,6.0000,7.0000,0.0000,1.0000 MPI_PROCESS=0 /
Cell Qty: 120 | Size: 0.250·0.200·0.167m | Aspect: 1.5 | Poisson: Yes
&MESH ID='mesh_12_i2_j0_k0' IJK=4,5,6
      XB=12.0000,13.0000,5.0000,6.0000,0.0000,1.0000 MPI_PROCESS=0 /
Cell Qty: 120 | Size: 0.250·0.200·0.167m | Aspect: 1.5 | Poisson: Yes
&MESH ID='mesh_12_i2_j1_k0' IJK=4,5,6
      XB=12.0000,13.0000,6.0000,7.0000,0.0000,1.0000 MPI_PROCESS=0 /
Cell Qty: 120 | Size: 0.250·0.200·0.167m | Aspect: 1.5 | Poisson: Yes
&MESH ID='mesh_12_i3_j0_k0' IJK=4,5,6
      XB=13.0000,14.0000,5.0000,6.0000,0.0000,1.0000 MPI_PROCESS=0 /
Cell Qty: 120 | Size: 0.250·0.200·0.167m | Aspect: 1.5 | Poisson: Yes
&MESH ID='mesh_12_i3_j1_k0' IJK=4,5,6
      XB=13.0000,14.0000,6.0000,7.0000,0.0000,1.0000 MPI_PROCESS=0 /
Cell Qty: 120 | Size: 0.250·0.200·0.167m | Aspect: 1.5 | Poisson: Yes
&MESH ID='mesh_13_i0_j0_k0' IJK=4,5,6
      XB=15.0000,16.0000,5.0000,6.0000,0.0000,1.0000 MPI_PROCESS=0 /
Cell Qty: 120 | Size: 0.250·0.200·0.167m | Aspect: 1.5 | Poisson: Yes
&MESH ID='mesh_13_i0_j0_k1' IJK=4,5,6
      XB=15.0000,16.0000,5.0000,6.0000,1.0000,2.0000 MPI_PROCESS=0 /
Cell Qty: 120 | Size: 0.250·0.200·0.167m | Aspect: 1.5 | Poisson: Yes
&MESH ID='mesh_13_i0_j1_k0' IJK=4,5,6
      XB=15.0000,16.0000,6.0000,7.0000,0.0000,1.0000 MPI_PROCESS=0 /
Cell Qty: 120 | Size: 0.250·0.200·0.167m | Aspect: 1.5 | Poisson: Yes
&MESH ID='mesh_13_i0_j1_k1' IJK=4,5,6
      XB=15.0000,16.0000,6.0000,7.0000,1.0000,2.0000 MPI_PROCESS=0 /
Cell Qty: 120 | Size: 0.250·0.200·0.167m | Aspect: 1.5 | Poisson: Yes
&MESH ID='mesh_13_i0_j2_k0' IJK=4,5,6
      XB=15.0000,16.0000,7.0000,8.0000,0.0000,1.0000 MPI_PROCESS=0 /
Cell Qty: 120 | Size: 0.250·0.200·0.167m | Aspect: 1.5 | Poisson: Yes
&MESH ID='mesh_13_i0_j2_k1' IJK=4,5,6
      XB=15.0000,16.0000,7.0000,8.0000,1.0000,2.0000 MPI_PROCESS=0 /
Cell Qty: 120 | Size: 0.250·0.200·0.167m | Aspect: 1.5 | Poisson: Yes
&MESH ID='mesh_13_i0_j3_k0' IJK=4,5,6
      XB=15.0000,16.0000,8.0000,9.0000,0.0000,1.0000 MPI_PROCESS=0 /
Cell Qty: 120 | Size: 0.250·0.200·0.167m | Aspect: 1.5 | Poisson: Yes
&MESH ID='mesh_13_i0_j3_k1' IJK=4,5,6
      XB=15.0000,16.0000,8.0000,9.0000,1.0000,2.0000 MPI_PROCESS=0 /
Cell Qty: 120 | Size: 0.250·0.200·0.167m | Aspect: 1.5 | Poisson: Yes
&MESH ID='mesh_13_i1_j0_k0' IJK=4,5,6
      XB=16.0000,17.0000,5.0000,6.0000,0.0000,1.0000 MPI_PROCESS=0 /
Cell Qty: 120 | Size: 0.250·0.200·0.167m | Aspect: 1.5 | Poisson: Yes
&MESH ID='mesh_13_i1_j0_k1' IJK=4,5,6
      XB=16.0000,17.0000,5.0000,6.0000,1.0000,2.0000 MPI_PROCESS=0 /
Cell Qty: 120 | Size: 0.250·0.200·0.167m | Aspect: 1.5 | Poisson: Yes
&MESH ID='mesh_13_i1_j1_k0' IJK=4,5,6
      XB=16.0000,17.0000,6.0000,7.0000,0.0000,1.0000 MPI_PROCESS=0 /
Cell Qty: 120 | Size: 0.250·0.200·0.167m | Aspect: 1.5 | Poisson: Yes
&MESH ID='mesh_13_i1_j1_k1' IJK=4,5,6
      XB=16.0000,17.0000,6.0000,7.0000,1.0000,2.0000 MPI_PROCESS=0 /
Cell Qty: 120 | Size: 0.250·0.200·0.167m | Aspect: 1.5 | Poisson: Yes
&MESH ID='mesh_13_i1_j2_k0' IJK=4,5,6
      XB=16.0000,17.0000,7.0000,8.0000,0.0000,1.0000 MPI_PROCESS=0 /
Cell Qty: 120 | Size: 0.250·0.200·0.167m | Aspect: 1.5 | Poisson: Yes
&MESH ID='mesh_13_i1_j2_k1' IJK=4,5,6
      XB=16.0000,17.0000,7.0000,8.0000,1.0000,2.0000 MPI_PROCESS=0 /
Cell Qty: 120 | Size: 0.250·0.200·0.167m | Aspect: 1.5 | Poisson: Yes
&MESH ID='mesh_13_i1_j3_k0' IJK=4,5,6
      XB=16.0000,17.0000,8.0000,9.0000,0.0000,1.0000 MPI_PROCESS=0 /
Cell Qty: 120 | Size: 0.250·0.200·0.167m | Aspect: 1.5 | Poisson: Yes
&MESH ID='mesh_13_i1_j3_k1' IJK=4,5,6
      XB=16.0000,17.0000,8.0000,9.0000,1.0000,2.0000 MPI_PROCESS=0 /
Cell Qty: 120 | Size: 0.250·0.200·0.167m | Aspect: 1.5 | Poisson: Yes
&MESH ID='mesh_13_i2_j0_k0' IJK=4,5,6
      XB=17.0000,18.0000,5.0000,6.0000,0.0000,1.0000 MPI_PROCESS=0 /
Cell Qty: 120 | Size: 0.250·0.200·0.167m | Aspect: 1.5 | Poisson: Yes
&MESH ID='mesh_13_i2_j0_k1' IJK=4,5,6
      XB=17.0000,18.0000,5.0000,6.0000,1.0000,2.0000 MPI_PROCESS=0 /
Cell Qty: 120 | Size: 0.250·0.200·0.167m | Aspect: 1.5 | Poisson: Yes
&MESH ID='mesh_13_i2_j1_k0' IJK=4,5,6
      XB=17.0000,18.0000,6.0000,7.0000,0.0000,1.0000 MPI_PROCESS=0 /
Cell Qty: 120 | Size: 0.250·0.200·0.167m | Aspect: 1.5 | Poisson: Yes
&MESH ID='mesh_13_i2_j1_k1' IJK=4,5,6
      XB=17.0000,18.0000,6.0000,7.0000,1.0000,2.0000 MPI_PROCESS=0 /
Cell Qty: 120 | Size: 0.250·0.200·0.167m | Aspect: 1.5 | Poisson: Yes
&MESH ID='mesh_13_i2_j2_k0' IJK=4,5,6
      XB=17.0000,18.0000,7.0000,8.0000,0.0000,1.0000 MPI_PROCESS=0 /
Cell Qty: 120 | Size: 0.250·0.200·0.167m | Aspect: 1.5 | Poisson: Yes
&MESH ID='mesh_13_i2_j2_k1' IJK=4,5,6
      XB=17.0000,18.0000,7.0000,8.0000,1.0000,2.0000 MPI_PROCESS=0 /
Cell Qty: 120 | Size: 0.250·0.200·0.167m | Aspect: 1.5 | Poisson: Yes
&MESH ID='mesh_13_i2_j3_k0' IJK=4,5,6
      XB=17.0000,18.0000,8.0000,9.0000,0.0000,1.0000 MPI_PROCESS=0 /
Cell Qty: 120 | Size: 0.250·0.200·0.167m | Aspect: 1.5 | Poisson: Yes
&MESH ID='mesh_13_i2_j3_k1' IJK=4,5,6
      XB=17.0000,18.0000,8.0000,9.0000,1.0000,2.0000 MPI_PROCESS=0 /
Cell Qty: 120 | Size: 0.250·0.200·0.167m | Aspect: 1.5 | Poisson: Yes
&MESH ID='mesh_13_i3_j0_k0' IJK=4,5,6
      XB=18.0000,19.0000,5.0000,6.0000,0.0000,1.0000 MPI_PROCESS=0 /
Cell Qty: 120 | Size: 0.250·0.200·0.167m | Aspect: 1.5 | Poisson: Yes
&MESH ID='mesh_13_i3_j0_k1' IJK=4,5,6
      XB=18.0000,19.0000,5.0000,6.0000,1.0000,2.0000 MPI_PROCESS=0 /
Cell Qty: 120 | Size: 0.250·0.200·0.167m | Aspect: 1.5 | Poisson: Yes
&MESH ID='mesh_13_i3_j1_k0' IJK=4,5,6
      XB=18.0000,19.0000,6.0000,7.0000,0.0000,1.0000 MPI_PROCESS=0 /
Cell Qty: 120 | Size: 0.250·0.200·0.167m | Aspect: 1.5 | Poisson: Yes
&MESH ID='mesh_13_i3_j1_k1' IJK=4,5,6
      XB=18.0000,19.0000,6.0000,7.0000,1.0000,2.0000 MPI_PROCESS=0 /
Cell Qty: 120 | Size: 0.250·0.200·0.167m | Aspect: 1.5 | Poisson: Yes
&MESH ID='mesh_13_i3_j2_k0' IJK=4,5,6
      XB=18.0000,19.0000,7.0000,8.0000,0.0000,1.0000 MPI_PROCESS=0 /
Cell Qty: 120 | Size: 0.250·0.200·0.167m | Aspect: 1.5 | Poisson: Yes
&MESH ID='mesh_13_i3_j2_k1' IJK=4,5,6
      XB=18.0000,19.0000,7.0000,8.0000,1.0000,2.0000 MPI_PROCESS=0 /
Cell Qty: 120 | Size: 0.250·0.200·0.167m | Aspect: 1.5 | Poisson: Yes
&MESH ID='mesh_13_i3_j3_k0' IJK=4,5,6
      XB=18.0000,19.0000,8.0000,9.0000,0.0000,1.0000 MPI_PROCESS=0 /
Cell Qty: 120 | Size: 0.250·0.200·0.167m | Aspect: 1.5 | Poisson: Yes
&MESH ID='mesh_13_i3_j3_k1' IJK=4,5,6
      XB=18.0000,19.0000,8.0000,9.0000,1.0000,2.0000 MPI_PROCESS=0 /
Cell Qty: 120 | Size: 0.250·0.200·0.167m | Aspect: 1.5 | Poisson: Yes
&MESH ID='mesh_21_i0_j0_k0' IJK=4,5,6
      XB=5.0000,6.0000,10.0000,11.0000,0.0000,1.0000 MPI_PROCESS=0 /
Cell Qty: 120 | Size: 0.250·0.200·0.167m | Aspect: 1.5 | Poisson: Yes
&MESH ID='mesh_21_i3_j0_k0' IJK=4,5,6
      XB=8.0000,9.0000,10.0000,11.0000,0.0000,1.0000 MPI_PROCESS=0 /
Cell Qty: 120 | Size: 0.250·0.200·0.167m | Aspect: 1.5 | Poisson: Yes
&MESH ID='mesh_22_i0_j0_k0' IJK=4,5,6
      XB=10.0000,11.0000,10.0000,11.0000,0.0000,1.0000 MPI_PROCESS=0 /
Cell Qty: 120 | Size: 0.250·0.200·0.167m | Aspect: 1.5 | Poisson: Yes
&MESH ID='mesh_22_i0_j3_k0' IJK=4,5,6
      XB=10.0000,11.0000,13.0000,14.0000,0.0000,1.0000 MPI_PROCESS=0 /
Cell Qty: 120 | Size: 0.250·0.200·0.167m | Aspect: 1.5 | Poisson: Yes
&MESH ID='mesh_22_i1_j0_k0' IJK=4,5,6
      XB=11.0000,12.0000,10.0000,11.0000,0.0000,1.0000 MPI_PROCESS=0 /
Cell Qty: 120 | Size: 0.250·0.200·0.167m | Aspect: 1.5 | Poisson: Yes
&MESH ID='mesh_22_i1_j3_k0' IJK=4,5,6
      XB=11.0000,12.0000,13.0000,14.0000,0.0000,1.0000 MPI_PROCESS=0 /
Cell Qty: 120 | Size: 0.250·0.200·0.167m | Aspect: 1.5 | Poisson: Yes
&MESH ID='mesh_22_i2_j0_k0' IJK=4,5,6
      XB=12.0000,13.0000,10.0000,11.0000,0.0000,1.0000 MPI_PROCESS=0 /
Cell Qty: 120 | Size: 0.250·0.200·0.167m | Aspect: 1.5 | Poisson: Yes
&MESH ID='mesh_22_i2_j3_k0' IJK=4,5,6
      XB=12.0000,13.0000,13.0000,14.0000,0.0000,1.0000 MPI_PROCESS=0 /
Cell Qty: 120 | Size: 0.250·0.200·0.167m | Aspect: 1.5 | Poisson: Yes
&MESH ID='mesh_22_i3_j0_k0' IJK=4,5,6
      XB=13.0000,14.0000,10.0000,11.0000,0.0000,1.0000 MPI_PROCESS=0 /
Cell Qty: 120 | Size: 0.250·0.200·0.167m | Aspect: 1.5 | Poisson: Yes
&MESH ID='mesh_22_i3_j3_k0' IJK=4,5,6
      XB=13.0000,14.0000,13.0000,14.0000,0.0000,1.0000 MPI_PROCESS=0 /
Cell Qty: 120 | Size: 0.250·0.200·0.167m | Aspect: 1.5 | Poisson: Yes
&MESH ID='mesh_23_i0_j0_k0' IJK=4,5,6
      XB=15.0000,16.0000,10.0000,11.0000,0.0000,1.0000 MPI_PROCESS=0 /
Cell Qty: 120 | Size: 0.250·0.200·0.167m | Aspect: 1.5 | Poisson: Yes
&MESH ID='mesh_23_i0_j0_k3' IJK=4,5,6
      XB=15.0000,16.0000,10.0000,11.0000,3.0000,4.0000 MPI_PROCESS=0 /
Cell Qty: 120 | Size: 0.250·0.200·0.167m | Aspect: 1.5 | Poisson: Yes
&MESH ID='mesh_23_i0_j1_k0' IJK=4,5,6
      XB=15.0000,16.0000,11.0000,12.0000,0.0000,1.0000 MPI_PROCESS=0 /
Cell Qty: 120 | Size: 0.250·0.200·0.167m | Aspect: 1.5 | Poisson: Yes
&MESH ID='mesh_23_i0_j1_k3' IJK=4,5,6
      XB=15.0000,16.0000,11.0000,12.0000,3.0000,4.0000 MPI_PROCESS=0 /
Cell Qty: 120 | Size: 0.250·0.200·0.167m | Aspect: 1.5 | Poisson: Yes
&MESH ID='mesh_23_i0_j2_k0' IJK=4,5,6
      XB=15.0000,16.0000,12.0000,13.0000,0.0000,1.0000 MPI_PROCESS=0 /
Cell Qty: 120 | Size: 0.250·0.200·0.167m | Aspect: 1.5 | Poisson: Yes
&MESH ID='mesh_23_i0_j2_k3' IJK=4,5,6
      XB=15.0000,16.0000,12.0000,13.0000,3.0000,4.0000 MPI_PROCESS=0 /
Cell Qty: 120 | Size: 0.250·0.200·0.167m | Aspect: 1.5 | Poisson: Yes
&MESH ID='mesh_23_i0_j3_k0' IJK=4,5,6
      XB=15.0000,16.0000,13.0000,14.0000,0.0000,1.0000 MPI_PROCESS=0 /
Cell Qty: 120 | Size: 0.250·0.200·0.167m | Aspect: 1.5 | Poisson: Yes
&MESH ID='mesh_23_i0_j3_k3' IJK=4,5,6
      XB=15.0000,16.0000,13.0000,14.0000,3.0000,4.0000 MPI_PROCESS=0 /
Cell Qty: 120 | Size: 0.250·0.200·0.167m | Aspect: 1.5 | Poisson: Yes
&MESH ID='mesh_23_i1_j0_k0' IJK=4,5,6
      XB=16.0000,17.0000,10.0000,11.0000,0.0000,1.0000 MPI_PROCESS=0 /
Cell Qty: 120 | Size: 0.250·0.200·0.167m | Aspect: 1.5 | Poisson: Yes
&MESH ID='mesh_23_i1_j0_k3' IJK=4,5,6
      XB=16.0000,17.0000,10.0000,11.0000,3.0000,4.0000 MPI_PROCESS=0 /
Cell Qty: 120 | Size: 0.250·0.200·0.167m | Aspect: 1.5 | Poisson: Yes
&MESH ID='mesh_23_i1_j1_k0' IJK=4,5,6
      XB=16.0000,17.0000,11.0000,12.0000,0.0000,1.0000 MPI_PROCESS=0 /
Cell Qty: 120 | Size: 0.250·0.200·0.167m | Aspect: 1.5 | Poisson: Yes
&MESH ID='mesh_23_i1_j1_k3' IJK=4,5,6
      XB=16.0000,17.0000,11.0000,12.0000,3.0000,4.0000 MPI_PROCESS=0 /
Cell Qty: 120 | Size: 0.250·0.200·0.167m | Aspect: 1.5 | Poisson: Yes
&MESH ID='mesh_23_i1_j2_k0' IJK=4,5,6
      XB=16.0000,17.0000,12.0000,13.0000,0.0000,1.0000 MPI_PROCESS=0 /
Cell Qty: 120 | Size: 0.250·0.200·0.167m | Aspect: 1.5 | Poisson: Yes
&MESH ID='mesh_23_i1_j2_k3' IJK=4,5,6
      XB=16.0000,17.0000,12.0000,13.0000,3.0000,4.0000 MPI_PROCESS=0 /
Cell Qty: 120 | Size: 0.250·0.200·0.167m | Aspect: 1.5 | Poisson: Yes
&MESH ID='mesh_23_i1_j3_k0' IJK=4,5,6
      XB=16.0000,17.0000,13.0000,14.0000,0.0000,1.0000 MPI_PROCESS=0 /
Cell Qty: 120 | Size: 0.250·0.200·0.167m | Aspect: 1.5 | Poisson: Yes
&MESH ID='mesh_23_i1_j3_k3' IJK=4,5,6
      XB=16.0000,17.0000,13.0000,14.0000,3.0000,4.0000 MPI_PROCESS=0 /
Cell Qty: 120 | Size: 0.250·0.200·0.167m | Aspect: 1.5 | Poisson: Yes
&MESH ID='mesh_23_i2_j0_k0' IJK=4,5,6
      XB=17.0000,18.0000,10.0000,11.0000,0.0000,1.0000 MPI_PROCESS=0 /
Cell Qty: 120 | Size: 0.250·0.200·0.167m | Aspect: 1.5 | Poisson: Yes
&MESH ID='mesh_23_i2_j0_k3' IJK=4,5,6
      XB=17.0000,18.0000,10.0000,11.0000,3.0000,4.0000 MPI_PROCESS=0 /
Cell Qty: 120 | Size: 0.250·0.200·0.167m | Aspect: 1.5 | Poisson: Yes
&MESH ID='mesh_23_i2_j1_k0' IJK=4,5,6
      XB=17.0000,18.0000,11.0000,12.0000,0.0000,1.0000 MPI_PROCESS=0 /
Cell Qty: 120 | Size: 0.250·0.200·0.167m | Aspect: 1.5 | Poisson: Yes
&MESH ID='mesh_23_i2_j1_k3' IJK=4,5,6
      XB=17.0000,18.0000,11.0000,12.0000,3.0000,4.0000 MPI_PROCESS=0 /
Cell Qty: 120 | Size: 0.250·0.200·0.167m | Aspect: 1.5 | Poisson: Yes
&MESH ID='mesh_23_i2_j2_k0' IJK=4,5,6
      XB=17.0000,18.0000,12.0000,13.0000,0.0000,1.0000 MPI_PROCESS=0 /
Cell Qty: 120 | Size: 0.250·0.200·0.167m | Aspect: 1.5 | Poisson: Yes
&MESH ID='mesh_23_i2_j2_k3' IJK=4,5,6
      XB=17.0000,18.0000,12.0000,13.0000,3.0000,4.0000 MPI_PROCESS=0 /
Cell Qty: 120 | Size: 0.250·0.200·0.167m | Aspect: 1.5 | Poisson: Yes
&MESH ID='mesh_23_i2_j3_k0' IJK=4,5,6
      XB=17.0000,18.0000,13.0000,14.0000,0.0000,1.0000 MPI_PROCESS=0 /
Cell Qty: 120 | Size: 0.250·0.200·0.167m | Aspect: 1.5 | Poisson: Yes
&MESH ID='mesh_23_i2_j3_k3' IJK=4,5,6
      XB=17.0000,18.0000,13.0000,14.0000,3.0000,4.0000 MPI_PROCESS=0 /
Cell Qty: 120 | Size: 0.250·0.200·0.167m | Aspect: 1.5 | Poisson: Yes
&MESH ID='mesh_23_i3_j0_k0' IJK=4,5,6
      XB=18.0000,19.0000,10.0000,11.0000,0.0000,1.0000 MPI_PROCESS=0 /
Cell Qty: 120 | Size: 0.250·0.200·0.167m | Aspect: 1.5 | Poisson: Yes
&MESH ID='mesh_23_i3_j0_k3' IJK=4,5,6
      XB=18.0000,19.0000,10.0000,11.0000,3.0000,4.0000 MPI_PROCESS=0 /
Cell Qty: 120 | Size: 0.250·0.200·0.167m | Aspect: 1.5 | Poisson: Yes
&MESH ID='mesh_23_i3_j1_k0' IJK=4,5,6
      XB=18.0000,19.0000,11.0000,12.0000,0.0000,1.0000 MPI_PROCESS=0 /
Cell Qty: 120 | Size: 0.250·0.200·0.167m | Aspect: 1.5 | Poisson: Yes
&MESH ID='mesh_23_i3_j1_k3' IJK=4,5,6
      XB=18.0000,19.0000,11.0000,12.0000,3.0000,4.0000 MPI_PROCESS=0 /
Cell Qty: 120 | Size: 0.250·0.200·0.167m | Aspect: 1.5 | Poisson: Yes
&MESH ID='mesh_23_i3_j2_k0' IJK=4,5,6
      XB=18.0000,19.0000,12.0000,13.0000,0.0000,1.0000 MPI_PROCESS=0 /
Cell Qty: 120 | Size: 0.250·0.200·0.167m | Aspect: 1.5 | Poisson: Yes
&MESH ID='mesh_23_i3_j2_k3' IJK=4,5,6
      XB=18.0000,19.0000,12.0000,13.0000,3.0000,4.0000 MPI_PROCESS=0 /