! Generated by BlenderFDS 6.0.0 on Blender 3.2.0 Beta
! Date: Fri, 13 May 2022, 16:04:17
! File: ···rfds.verification/tests/geometries_export/bl/xb_xyz_pb_geometry.blend
--- Case from Blender Scene: <xb_pixels_flat_centered> | View Layer: <View Layer>
&HEAD CHID='xb_pixels_flat_centered' TITLE='Test pixel centering' /
&TIME T_END=1.0 /

--- Boundary conditions from Blender Materials
&SURF ID='Material_red' RGB=255,0,0 /

--- Geometric namelists from Blender Collections
&OBST ID='Base' SURF_ID='INERT' XB=-1.0000,1.0000,-1.0000,1.0000,-1.0000,-0.5000 /
XB Pixels: 3 | Resolution: 0.100 m
&VENT ID='Circle_0' XB=-0.7001,-0.0999,0.6999,0.8001,-0.4900,-0.4900
      SURF_ID='Material_red' /
&VENT ID='Circle_1' XB=-0.8001,0.0001,0.0999,0.7001,-0.4900,-0.4900
      SURF_ID='Material_red' /
&VENT ID='Circle_2' XB=-0.7001,-0.0999,-0.0001,0.1001,-0.4900,-0.4900
      SURF_ID='Material_red' /
XB Pixels: 5 | Resolution: 0.100 m
&VENT ID='Circle pixel centered_0'
      XB=0.1499,0.6501,0.7499,0.8501,-0.4900,-0.4900 SURF_ID='Material_red' /
&VENT ID='Circle pixel centered_1'
      XB=0.0499,0.7501,0.6499,0.7501,-0.4900,-0.4900 SURF_ID='Material_red' /
&VENT ID='Circle pixel centered_2'
      XB=-0.0501,0.8501,0.1499,0.6501,-0.4900,-0.4900 SURF_ID='Material_red' /
&VENT ID='Circle pixel centered_3'
      XB=0.0499,0.7501,0.0499,0.1501,-0.4900,-0.4900 SURF_ID='Material_red' /
&VENT ID='Circle pixel centered_4'
      XB=0.1499,0.6501,-0.0501,0.0501,-0.4900,-0.4900 SURF_ID='Material_red' /
XB Pixels: 5 | Resolution: 0.100 m
&VENT ID='Circle pixel not centered_0'
      XB=-0.5001,-0.2999,-0.0001,0.1001,-0.4900,-0.4900 SURF_ID='Material_red' /
&VENT ID='Circle pixel not centered_1'
      XB=-0.8001,0.0001,-0.3001,0.0001,-0.4900,-0.4900 SURF_ID='Material_red' /
&VENT ID='Circle pixel not centered_2'
      XB=-0.9001,0.1001,-0.5001,-0.2999,-0.4900,-0.4900 SURF_ID='Material_red' /
&VENT ID='Circle pixel not centered_3'
      XB=-0.8001,0.0001,-0.8001,-0.4999,-0.4900,-0.4900 SURF_ID='Material_red' /
&VENT ID='Circle pixel not centered_4'
      XB=-0.5001,-0.2999,-0.9001,-0.7999,-0.4900,-0.4900 SURF_ID='Material_red' /
MESH Qty: 1 | Splits: 1 | Multiples: 1
Cell Qty: 8000 (~8000 each)
Size: 0.100 · 0.100 · 0.100m | Aspect: 1.0 | Poisson: Yes
&MESH ID='Domain' IJK=20,20,20 XB=-1.0000,1.0000,-1.0000,1.0000,-1.0000,1.0000 /

&TAIL /
