! Generated by BlenderFDS 6.0.0 on Blender 3.2.0 Beta
! Date: Sat, 21 May 2022, 14:16:55
! File: /tmp/tmp8bcbe1mr/layer_4mesh.blend

--- Case from Blender Scene: <layer_4mesh> | View Layer: <ViewLayer>

&HEAD CHID='layer_4mesh' /
&TIME T_END=0.1 /
&REAC FUEL='PROPANE' SOOT_YIELD=0.010 /
&DUMP DT_DEVC=2.0 /

--- Boundary conditions from Blender Materials

&SURF ID='FIRE' RGB=255,0,0 HRRPUA=200.0 /

--- Computational domain | MPI Processes: 3 | MESH Qty: 4 | Cell Qty: 8000

-- MPI Process: <0> | MESH Qty: 2 | Cell Qty: 4000
Cell Qty: 2000 | Size: 0.100·0.100·0.100m | Aspect: 1.0 | Poisson: Yes
&MESH ID='New MESH' IJK=20,20,5 XB=0.0000,2.0000,0.0000,2.0000,0.0000,0.5000
      MPI_PROCESS=0 /
Cell Qty: 2000 | Size: 0.100·0.100·0.100m | Aspect: 1.0 | Poisson: Yes
&MESH ID='New MESH.003' IJK=20,20,5 XB=0.0000,2.0000,0.0000,2.0000,1.5000,2.0000
      MPI_PROCESS=0 /

-- MPI Process: <1> | MESH Qty: 1 | Cell Qty: 2000
Cell Qty: 2000 | Size: 0.100·0.100·0.100m | Aspect: 1.0 | Poisson: Yes
&MESH ID='New MESH.001' IJK=20,20,5 XB=0.0000,2.0000,0.0000,2.0000,0.5000,1.0000
      MPI_PROCESS=1 /

-- MPI Process: <2> | MESH Qty: 1 | Cell Qty: 2000
Cell Qty: 2000 | Size: 0.100·0.100·0.100m | Aspect: 1.0 | Poisson: Yes
&MESH ID='New MESH.002' IJK=20,20,5 XB=0.0000,2.0000,0.0000,2.0000,1.0000,1.5000
      MPI_PROCESS=2 /

--- Geometric namelists from Blender Collections

-- Blender Collection: <New Obstacles>
&VENT ID='New VENT' SURF_ID='OPEN' XB=0.0000,0.0000,0.4000,1.6000,0.8000,1.2000 /
&VENT ID='New VENT.001' SURF_ID='OPEN'
      XB=2.0000,2.0000,0.4000,1.6000,0.8000,1.2000 /
&VENT ID='New VENT.002' SURF_ID='OPEN'
      XB=0.4000,1.6000,0.0000,0.0000,0.8000,1.2000 /
&VENT ID='New VENT.003' SURF_ID='OPEN'
      XB=0.4000,1.6000,2.0000,2.0000,0.8000,1.2000 /
&VENT ID='New VENT.004' SURF_ID='FIRE'
      XB=0.8000,1.2000,0.8000,1.2000,0.0000,0.0000 /

-- Blender Collection: <New Output>
&SLCF ID='New SLCF' QUANTITY='TEMPERATURE' VECTOR=T PBY=1.0000 /
&DEVC ID='T_low' QUANTITY='LOWER TEMPERATURE'
      XB=1.8000,1.8000,1.8000,1.8000,0.0000,2.0000 /
&DEVC ID='T_up' QUANTITY='UPPER TEMPERATURE'
      XB=1.8000,1.8000,1.8000,1.8000,0.0000,2.0000 /
&DEVC ID='z_int' QUANTITY='LAYER HEIGHT'
      XB=1.8000,1.8000,1.8000,1.8000,0.0000,2.0000 /

&TAIL /
