!!! Generated by BlenderFDS 6.0.0 on Blender 3.0.0
!!! Date: <lun, 10 gen 2022, 16:06:18>
!!! File: <...n/tests/blender_geometry_to_fds/bl/terrain_geometry.blend>
! --- Case from Blender Scene <geom_terrain>
&HEAD CHID='geom_terrain' TITLE='Test simple geom' /
&TIME T_END=1.0 /

! --- Boundary conditions from related Blender Materials
&SURF ID='Material_blue' RGB=0,16,204 /
&SURF ID='Material_red' RGB=255,0,0 /
 
! --- Geometric namelists from Blender Collection <Scene Collection>
! MESH Cell Qty: 8000
! Cell Size: 0.100m · 0.100m · 0.100m | Aspect: 1.0 | Poisson: Yes
&MESH ID='Domain' IJK=20,20,20
      XB=-1.000000,1.000000,-1.000000,1.000000,-1.000000,1.000000 /
! GEOM Vertices: 42 | Faces: 48
&GEOM ID='Terrain' SURF_ID='INERT','Material_red','Material_blue' IS_TERRAIN=T
      EXTEND_TERRAIN=F
      VERTS=0.250000,-0.433013,-0.500000,-0.683013,0.183013,-0.500000,0.183013,
        0.683013,-0.500000,0.000000,0.000000,0.500000,0.316987,-1.549038,
        -0.500000,1.183013,-1.049038,-0.500000,-1.683013,1.915063,-0.500000,
        -0.816987,2.415063,-0.500000,-2.415063,-0.816987,-0.500000,-1.415063,
        -2.549038,-0.500000,-3.415063,0.915063,-0.500000,1.915063,1.683013,
        -0.500000,2.915063,-0.049038,-0.500000,0.915063,3.415063,-0.500000
      FACES=4,2,1,1,1,3,4,3,3,2,4,2,2,5,1,1,3,1,6,1,3,7,2,2,7,9,2,1,2,10,5,1,3,
        14,8,2,6,12,3,2,3,8,7,2,7,11,9,1,2,9,10,1,3,12,14,2,6,13,12,2,1,5,6,1 /

&TAIL /
 