! Generated by BlenderFDS 6.0.0 on Blender 3.2.0 Beta
! Date: Fri, 13 May 2022, 16:20:47
! File: ···lenderfds.verification/tests/geometries_export/bl/geom_geometry.blend
--- Case from Blender Scene: <geom_complex_bingeom> | View Layer: <View Layer>
&HEAD CHID='geom_complex_bingeom' /
&TIME T_END=1.0 /

--- Boundary conditions from Blender Materials
&SURF ID='Material_blue' RGB=0,16,204 /
&SURF ID='Material_red' RGB=255,0,0 /

--- Geometric namelists from Blender Collections
MESH Qty: 1 | Splits: 1 | Multiples: 1
Cell Qty: 8000 (~8000 each)
Size: 0.100 · 0.100 · 0.100m | Aspect: 1.0 | Poisson: Yes
&MESH ID='Domain' IJK=20,20,20 XB=-1.0000,1.0000,-1.0000,1.0000,-1.0000,1.0000 /
GEOM Vertices: 18897 | Faces: 37782
&GEOM ID='Suzanne' SURF_ID='INERT','Material_red','Material_blue'
      BINARY_FILE='Suzanne.bingeom' /

&TAIL /
