! Generated by BlenderFDS 6.0.0 on Blender 3.0.0
! Date: <ven, 11 feb 2022, 13:04:13>
! File: <not saved>
--- Case from Blender Scene: <geom_xb_move_t34> | View Layer: <ViewLayer>
&HEAD CHID='geom_xb_move_t34' /
&TIME T_END=1.0 /

--- Boundary conditions from Blender Materials
&SURF ID='Blue bc' RGB=0,0,255 /
&SURF ID='Dark blue bc' RGB=0,0,50 /
&SURF ID='Dark green bc' RGB=0,50,0 /
&SURF ID='Dark red bc' RGB=50,0,0 /
&SURF ID='Green bc' RGB=0,255,0 /
&SURF ID='Red bc' RGB=255,0,0 /

--- Geometric namelists from Blender Collections

--- Blender Collection: <New Domain>
MESH Qty: 1 | Splits: 1 | Multiples: 1
Cell Qty: 1000 (~1000 each)
Size: 0.400 · 0.400 · 0.400m | Aspect: 1.0 | Poisson: Yes
&MESH ID='Domain' IJK=10,10,10 XB=-2.0000,2.0000,-2.0000,2.0000,-2.0000,2.0000 /

--- Blender Collection: <New Obstacles>
GEOM Vertices: 24 | Faces: 36
&GEOM ID='Cube' SURF_ID='Dark red bc','Red bc','Dark green bc','Green bc',
      'Dark blue bc','Blue bc' BINARY_FILE='New GEOM.bingeom' /
GEOM Vertices: 24 | Faces: 36
&GEOM ID='Cube 30°z' SURF_ID='Dark red bc','Red bc','Dark green bc','Green bc',
      'Dark blue bc','Blue bc' BINARY_FILE='New GEOM.002.bingeom' /
GEOM Vertices: 24 | Faces: 36
&GEOM ID='Cube 30°z 15°x' SURF_ID='Dark red bc','Red bc','Dark green bc',
      'Green bc','Dark blue bc','Blue bc' BINARY_FILE='New GEOM.003.bingeom' /
GEOM Vertices: 24 | Faces: 36
&GEOM ID='Cube 30°z 15°x other' SURF_ID='Dark red bc','Red bc','Dark green bc',
      'Green bc','Dark blue bc','Blue bc' BINARY_FILE='New GEOM.004.bingeom' /
GEOM Vertices: 24 | Faces: 36
&GEOM ID='Cube translate 1.,2.,3.' SURF_ID='Dark red bc','Red bc',
      'Dark green bc','Green bc','Dark blue bc','Blue bc'
      BINARY_FILE='New GEOM.001.bingeom' /

&TAIL /
