! Generated by BlenderFDS 6.0.0 on Blender 3.2.0 Beta
! Date: Sat, 21 May 2022, 13:49:59
! File: /tmp/tmpp61pxrvd/bingeom_relative_path.blend

--- Case from Blender Scene: <bingeom_relative_path> | View Layer: <ViewLayer>

&HEAD CHID='bingeom_relative_path' /
&TIME T_END=1.0 /

--- Boundary conditions from Blender Materials

&SURF ID='Blue bc' RGB=0,0,255 /
&SURF ID='Green bc' RGB=0,255,0 /

--- Computational domain | MPI Processes: 1 | MESH Qty: 1 | Cell Qty: 1000

-- MPI Process: <0> | MESH Qty: 1 | Cell Qty: 1000
Cell Qty: 1000 | Size: 0.400·0.400·0.400m | Aspect: 1.0 | Poisson: Yes
&MESH ID='Domain' IJK=10,10,10 XB=-2.0000,2.0000,-2.0000,2.0000,0.0000,4.0000
      MPI_PROCESS=0 /

--- Geometric namelists from Blender Collections

-- Blender Collection: <New Obstacles>
Vertices: 24 | Faces: 36
&GEOM ID='Cube' SURF_ID='Green bc','Blue bc' BINARY_FILE='Cube.bingeom' /

&TAIL /
