!!! Generated by BlenderFDS 6.0.0 on Blender 3.0.0
!!! Date: <lun, 31 gen 2022, 09:46:14>
!!! File: <not saved>
! --- Case from Blender Scene <geom_sphere> and View Layer <ViewLayer>
&HEAD CHID='geom_sphere' /
&TIME T_END=1.0 /

! --- Boundary conditions from Blender Materials
&SURF ID='Red bc' RGB=255,0,0 /

! --- Geometric namelists from Blender Collections
! MESH Cell Qty: 1000
! Cell Size: 0.400m · 0.400m · 0.400m | Aspect: 1.0 | Poisson: Yes
&MESH ID='Domain' IJK=10,10,10
      XB=-2.000000,2.000000,-2.000000,2.000000,-2.000000,2.000000 /
! GEOM Vertices: 126 | Faces: 240
&GEOM ID='Sphere002' SURF_ID='Red bc' BINARY_FILE='Icosphere.bingeom' /
! GEOM Vertices: 126 | Faces: 240
&GEOM ID='Sphere003' SURF_ID='Red bc' BINARY_FILE='Icosphere.001.bingeom' /
! GEOM Vertices: 126 | Faces: 240
&GEOM ID='Sphere004' SURF_ID='Red bc' BINARY_FILE='Icosphere.002.bingeom' /
! GEOM Vertices: 126 | Faces: 240
&GEOM ID='Sphere012' SURF_ID='Red bc' BINARY_FILE='Icosphere.003.bingeom' /
! GEOM Vertices: 126 | Faces: 240
&GEOM ID='Sphere013' SURF_ID='Red bc' BINARY_FILE='Icosphere.004.bingeom' /
! GEOM Vertices: 126 | Faces: 240
&GEOM ID='Sphere014' SURF_ID='Red bc' BINARY_FILE='Icosphere.005.bingeom' /

&TAIL /
 