!!! Generated by BlenderFDS 6.0.0 on Blender 3.0.0
!!! Date: <mar, 11 gen 2022, 09:28:45>
!!! File: <...ication/tests/bl_view_layer_to_fds/bl/view_layer_1M.blend>
! --- Case from Blender Scene <view_layer_test> and View Layer <VL 1 MESH>
&HEAD CHID='view_layer_test' TITLE='Testing view layer selection of collections' /
&TIME T_END=1.0 /
&REAC ID='Example' FUEL='PROPANE' CO_YIELD=0.010 SOOT_YIELD=0.020
      HEAT_OF_COMBUSTION=46420.0 /

! --- Free text from Blender Text <Text>
! Insert here other non-geometrical namelists
&BNDF QUANTITY='WALL TEMPERATURE' /
&BNDF QUANTITY='BURNING RATE' /

! --- Boundary conditions from related Blender Materials
&SURF ID='Burner bc' RGB=255,0,0 /
&SURF ID='Material bc' RGB=204,166,111 /
 
! --- Geometric namelists from Blender Collection <Scene Collection>
! --- Geometric namelists from Blender Collection <Domain 1 MESH>
! MESH Cell Qty: 8000
! Cell Size: 0.200m · 0.200m · 0.200m | Aspect: 1.0 | Poisson: Yes
&MESH ID='Domain 1M' IJK=20,20,20
      XB=-2.000000,2.000000,-2.000000,2.000000,0.000000,4.000000 /
! PB* Planes: 5
&VENT SURF_ID='OPEN' ID='Domain bcs_0' PBX=-2.000000 /
&VENT SURF_ID='OPEN' ID='Domain bcs_1' PBX=2.000000 /
&VENT SURF_ID='OPEN' ID='Domain bcs_2' PBY=-2.000000 /
&VENT SURF_ID='OPEN' ID='Domain bcs_3' PBY=2.000000 /
&VENT SURF_ID='OPEN' ID='Domain bcs_4' PBZ=4.000000 /
! --- Geometric namelists from Blender Collection <Burner>
&VENT ID='Burner' SURF_ID='Burner bc'
      XB=-1.000000,1.000000,-1.000000,1.000000,2.010000,2.010000 /
&OBST ID='Cube' SURF_ID='Material bc'
      XB=-1.000000,1.000000,-1.000000,1.000000,0.000000,2.000000 /
! --- Geometric namelists from Blender Collection <Other solids>
&OBST ID='Cube small' SURF_ID='Material bc'
      XB=0.043897,1.340596,0.452796,1.749494,0.351651,1.648349 /
! --- Geometric namelists from Blender Collection <Output>
&SLCF ID='Temp slice' QUANTITY='TEMPERATURE' VECTOR=T CELL_CENTERED=T
      PBX=0.000000 /

&TAIL /
 