! Generated by BlenderFDS 6.0.0 on Blender 3.2.0 Beta
! Date: Fri, 13 May 2022, 16:36:14
! File: /home/egissi/github/blenderfds/startup.blend
--- Case from Blender Scene: <bingeom_no_path> | View Layer: <ViewLayer>
&HEAD CHID='bingeom_no_path' /
&TIME T_END=1.0 /

--- Boundary conditions from Blender Materials
&SURF ID='Blue bc' RGB=0,0,255 /
&SURF ID='Green bc' RGB=0,255,0 /

--- Geometric namelists from Blender Collections

--- Blender Collection: <New Domain>
MESH Qty: 1 | Splits: 1 | Multiples: 1
Cell Qty: 1000 (~1000 each)
Size: 0.400 · 0.400 · 0.400m | Aspect: 1.0 | Poisson: Yes
&MESH ID='Domain' IJK=10,10,10 XB=-2.0000,2.0000,-2.0000,2.0000,-2.0000,2.0000 /

--- Blender Collection: <New Obstacles>
GEOM Vertices: 24 | Faces: 36
&GEOM ID='Cube' SURF_ID='Green bc','Blue bc' BINARY_FILE='Cube.bingeom' /

&TAIL /
