!!! Generated by BlenderFDS 6.0.0 on Blender 3.0.0
!!! Date: <mar, 11 gen 2022, 16:12:24>
!!! File: <...tion/tests/bf_geometry_to_fds/bl/xb_xyz_pb_geometry.blend>
! --- Case from Blender Scene <xb_bbox_plane_solidify> and View Layer <View Layer>
&HEAD CHID='xb_bbox_plane_solidify' TITLE='Test bbox w solidified plane' /
&TIME T_END=1.0 /

! --- Geometric namelists from Blender Collections
! MESH Cell Qty: 8000
! Cell Size: 0.100m · 0.100m · 0.100m | Aspect: 1.0 | Poisson: Yes
&MESH ID='Domain' IJK=20,20,20
      XB=-1.000000,1.000000,-1.000000,1.000000,-1.000000,1.000000 /
&OBST ID='Plane_bbox' SURF_ID='INERT'
      XB=-0.221799,2.221799,-0.242462,2.242462,-1.691190,-0.308810 /

&TAIL /
 