!!! Generated by BlenderFDS 6.0.0 on Blender 3.0.0
!!! Date: <lun, 31 gen 2022, 09:45:40>
!!! File: <not saved>
! --- Case from Blender Scene <geom_cylinder> and View Layer <ViewLayer>
&HEAD CHID='geom_cylinder' /
&TIME T_END=1.0 /

! --- Boundary conditions from Blender Materials
&SURF ID='Blue bc' RGB=0,0,255 /
&SURF ID='Dark blue bc' RGB=0,0,50 /
&SURF ID='Dark green bc' RGB=0,50,0 /
&SURF ID='Dark red bc' RGB=50,0,0 /
&SURF ID='Green bc' RGB=0,255,0 /
&SURF ID='Red bc' RGB=255,0,0 /

! --- Geometric namelists from Blender Collections
! GEOM Vertices: 48 | Faces: 84
&GEOM ID='Cyl002' SURF_ID='Red bc','Green bc','Dark red bc'
      BINARY_FILE='Cylinder.bingeom' /
! GEOM Vertices: 48 | Faces: 84
&GEOM ID='Cyl003' SURF_ID='Green bc','Blue bc','Dark green bc'
      BINARY_FILE='Cylinder.001.bingeom' /
! GEOM Vertices: 48 | Faces: 84
&GEOM ID='Cyl004' SURF_ID='Blue bc','Green bc','Dark blue bc'
      BINARY_FILE='Cylinder.002.bingeom' /
! GEOM Vertices: 48 | Faces: 84
&GEOM ID='Cyl012' SURF_ID='Red bc','Green bc','Dark red bc'
      BINARY_FILE='Cylinder.003.bingeom' /
! GEOM Vertices: 48 | Faces: 84
&GEOM ID='Cyl013' SURF_ID='Green bc','Blue bc','Dark green bc'
      BINARY_FILE='Cylinder.004.bingeom' /
! GEOM Vertices: 48 | Faces: 84
&GEOM ID='Cyl014' SURF_ID='Blue bc','Green bc','Dark blue bc'
      BINARY_FILE='Cylinder.005.bingeom' /
! GEOM Vertices: 48 | Faces: 84
&GEOM ID='Cyl022' SURF_ID='Blue bc','Green bc','Dark blue bc'
      BINARY_FILE='Cylinder.006.bingeom' /
! MESH Cell Qty: 1000
! Cell Size: 0.400m · 0.400m · 0.400m | Aspect: 1.0 | Poisson: Yes
&MESH ID='Domain' IJK=10,10,10
      XB=-2.000000,2.000000,-2.000000,2.000000,-2.000000,2.000000 /

&TAIL /
 