!!! Generated by BlenderFDS 6.0.0 on Blender 3.0.0
!!! Date: <ven, 18 feb 2022, 07:38:49>
!!! File: <not saved>
! --- Case from Blender Scene <obst_mult> and View Layer <ViewLayer>
&HEAD CHID='obst_mult' /
&TIME T_END=0.0 /

! --- Boundary conditions from Blender Materials
&SURF ID='Blue bc' RGB=0,0,255 /
&SURF ID='Dark blue bc' RGB=0,0,50 /
&SURF ID='Dark green bc' RGB=0,50,0 /
&SURF ID='Dark red bc' RGB=50,0,0 /
&SURF ID='Green bc' RGB=0,255,0 /
&SURF ID='Red bc' RGB=255,0,0 /

! --- Geometric namelists from Blender Collections
! MESH Cell Qty: 1000000
! Cell Size: 0.010m · 0.010m · 0.010m | Aspect: 1.0 | Poisson: Yes
&MESH ID='Domain' IJK=100,100,100
      XB=0.000000,1.000000,0.000000,1.000000,0.000000,1.000000 /
&OBST ID='east_0' SURF_ID='Green bc'
      XB=0.890000,0.900000,0.110000,0.890000,0.100000,0.110000 /
&OBST ID='east_1' SURF_ID='Green bc'
      XB=0.880000,0.890000,0.120000,0.880000,0.110000,0.120000 /
&OBST ID='east_10' SURF_ID='Green bc'
      XB=0.790000,0.800000,0.210000,0.790000,0.200000,0.210000 /
&OBST ID='east_11' SURF_ID='Green bc'
      XB=0.780000,0.790000,0.220000,0.780000,0.210000,0.220000 /
&OBST ID='east_12' SURF_ID='Green bc'
      XB=0.770000,0.780000,0.230000,0.770000,0.220000,0.230000 /
&OBST ID='east_13' SURF_ID='Green bc'
      XB=0.760000,0.770000,0.240000,0.760000,0.230000,0.240000 /
&OBST ID='east_14' SURF_ID='Green bc'
      XB=0.750000,0.760000,0.250000,0.750000,0.240000,0.250000 /
&OBST ID='east_15' SURF_ID='Green bc'
      XB=0.740000,0.750000,0.260000,0.740000,0.250000,0.260000 /
&OBST ID='east_16' SURF_ID='Green bc'
      XB=0.730000,0.740000,0.270000,0.730000,0.260000,0.270000 /
&OBST ID='east_17' SURF_ID='Green bc'
      XB=0.720000,0.730000,0.280000,0.720000,0.270000,0.280000 /
&OBST ID='east_18' SURF_ID='Green bc'
      XB=0.710000,0.720000,0.290000,0.710000,0.280000,0.290000 /
&OBST ID='east_19' SURF_ID='Green bc'
      XB=0.700000,0.710000,0.300000,0.700000,0.290000,0.300000 /
&OBST ID='east_2' SURF_ID='Green bc'
      XB=0.870000,0.880000,0.130000,0.870000,0.120000,0.130000 /
&OBST ID='east_20' SURF_ID='Green bc'
      XB=0.690000,0.700000,0.310000,0.690000,0.300000,0.310000 /
&OBST ID='east_21' SURF_ID='Green bc'
      XB=0.680000,0.690000,0.320000,0.680000,0.310000,0.320000 /
&OBST ID='east_22' SURF_ID='Green bc'
      XB=0.670000,0.680000,0.330000,0.670000,0.320000,0.330000 /
&OBST ID='east_23' SURF_ID='Green bc'
      XB=0.660000,0.670000,0.340000,0.660000,0.330000,0.340000 /
&OBST ID='east_24' SURF_ID='Green bc'
      XB=0.650000,0.660000,0.350000,0.650000,0.340000,0.350000 /
&OBST ID='east_25' SURF_ID='Green bc'
      XB=0.640000,0.650000,0.360000,0.640000,0.350000,0.360000 /
&OBST ID='east_26' SURF_ID='Green bc'
      XB=0.630000,0.640000,0.370000,0.630000,0.360000,0.370000 /
&OBST ID='east_27' SURF_ID='Green bc'
      XB=0.620000,0.630000,0.380000,0.620000,0.370000,0.380000 /
&OBST ID='east_28' SURF_ID='Green bc'
      XB=0.610000,0.620000,0.390000,0.610000,0.380000,0.390000 /
&OBST ID='east_29' SURF_ID='Green bc'
      XB=0.600000,0.610000,0.400000,0.600000,0.390000,0.400000 /
&OBST ID='east_3' SURF_ID='Green bc'
      XB=0.860000,0.870000,0.140000,0.860000,0.130000,0.140000 /
&OBST ID='east_30' SURF_ID='Green bc'
      XB=0.590000,0.600000,0.410000,0.590000,0.400000,0.410000 /
&OBST ID='east_31' SURF_ID='Green bc'
      XB=0.580000,0.590000,0.420000,0.580000,0.410000,0.420000 /
&OBST ID='east_32' SURF_ID='Green bc'
      XB=0.570000,0.580000,0.430000,0.570000,0.420000,0.430000 /
&OBST ID='east_33' SURF_ID='Green bc'
      XB=0.560000,0.570000,0.440000,0.560000,0.430000,0.440000 /
&OBST ID='east_34' SURF_ID='Green bc'
      XB=0.550000,0.560000,0.450000,0.550000,0.440000,0.450000 /
&OBST ID='east_35' SURF_ID='Green bc'
      XB=0.540000,0.550000,0.460000,0.540000,0.450000,0.460000 /
&OBST ID='east_36' SURF_ID='Green bc'
      XB=0.530000,0.540000,0.470000,0.530000,0.460000,0.470000 /
&OBST ID='east_37' SURF_ID='Green bc'
      XB=0.520000,0.530000,0.480000,0.520000,0.470000,0.480000 /
&OBST ID='east_38' SURF_ID='Green bc'
      XB=0.510000,0.520000,0.490000,0.510000,0.480000,0.490000 /
&OBST ID='east_39' SURF_ID='Green bc'
      XB=0.500000,0.510000,0.500000,0.500000,0.490000,0.500000 /
&OBST ID='east_4' SURF_ID='Green bc'
      XB=0.850000,0.860000,0.150000,0.850000,0.140000,0.150000 /
&OBST ID='east_5' SURF_ID='Green bc'
      XB=0.840000,0.850000,0.160000,0.840000,0.150000,0.160000 /
&OBST ID='east_6' SURF_ID='Green bc'
      XB=0.830000,0.840000,0.170000,0.830000,0.160000,0.170000 /
&OBST ID='east_7' SURF_ID='Green bc'
      XB=0.820000,0.830000,0.180000,0.820000,0.170000,0.180000 /
&OBST ID='east_8' SURF_ID='Green bc'
      XB=0.810000,0.820000,0.190000,0.810000,0.180000,0.190000 /
&OBST ID='east_9' SURF_ID='Green bc'
      XB=0.800000,0.810000,0.200000,0.800000,0.190000,0.200000 /
&HOLE ID='hole_0_0_0' XB=0.400000,0.450000,0.000000,1.000000,0.150000,0.200000 /
&HOLE ID='hole_0_0_1' XB=0.400000,0.450000,0.000000,1.000000,0.250000,0.300000 /
&HOLE ID='hole_1_0_0' XB=0.550000,0.600000,0.000000,1.000000,0.150000,0.200000 /
&HOLE ID='hole_1_0_1' XB=0.550000,0.600000,0.000000,1.000000,0.250000,0.300000 /
&OBST ID='north_0' SURF_ID='Red bc'
      XB=0.100000,0.900000,0.890000,0.900000,0.100000,0.110000 /
&OBST ID='north_1' SURF_ID='Red bc'
      XB=0.110000,0.890000,0.880000,0.890000,0.110000,0.120000 /
&OBST ID='north_10' SURF_ID='Red bc'
      XB=0.200000,0.800000,0.790000,0.800000,0.200000,0.210000 /
&OBST ID='north_11' SURF_ID='Red bc'
      XB=0.210000,0.790000,0.780000,0.790000,0.210000,0.220000 /
&OBST ID='north_12' SURF_ID='Red bc'
      XB=0.220000,0.780000,0.770000,0.780000,0.220000,0.230000 /
&OBST ID='north_13' SURF_ID='Red bc'
      XB=0.230000,0.770000,0.760000,0.770000,0.230000,0.240000 /
&OBST ID='north_14' SURF_ID='Red bc'
      XB=0.240000,0.760000,0.750000,0.760000,0.240000,0.250000 /
&OBST ID='north_15' SURF_ID='Red bc'
      XB=0.250000,0.750000,0.740000,0.750000,0.250000,0.260000 /
&OBST ID='north_16' SURF_ID='Red bc'
      XB=0.260000,0.740000,0.730000,0.740000,0.260000,0.270000 /
&OBST ID='north_17' SURF_ID='Red bc'
      XB=0.270000,0.730000,0.720000,0.730000,0.270000,0.280000 /
&OBST ID='north_18' SURF_ID='Red bc'
      XB=0.280000,0.720000,0.710000,0.720000,0.280000,0.290000 /
&OBST ID='north_19' SURF_ID='Red bc'
      XB=0.290000,0.710000,0.700000,0.710000,0.290000,0.300000 /
&OBST ID='north_2' SURF_ID='Red bc'
      XB=0.120000,0.880000,0.870000,0.880000,0.120000,0.130000 /
&OBST ID='north_20' SURF_ID='Red bc'
      XB=0.300000,0.700000,0.690000,0.700000,0.300000,0.310000 /
&OBST ID='north_21' SURF_ID='Red bc'
      XB=0.310000,0.690000,0.680000,0.690000,0.310000,0.320000 /
&OBST ID='north_22' SURF_ID='Red bc'
      XB=0.320000,0.680000,0.670000,0.680000,0.320000,0.330000 /
&OBST ID='north_23' SURF_ID='Red bc'
      XB=0.330000,0.670000,0.660000,0.670000,0.330000,0.340000 /
&OBST ID='north_24' SURF_ID='Red bc'
      XB=0.340000,0.660000,0.650000,0.660000,0.340000,0.350000 /
&OBST ID='north_25' SURF_ID='Red bc'
      XB=0.350000,0.650000,0.640000,0.650000,0.350000,0.360000 /
&OBST ID='north_26' SURF_ID='Red bc'
      XB=0.360000,0.640000,0.630000,0.640000,0.360000,0.370000 /
&OBST ID='north_27' SURF_ID='Red bc'
      XB=0.370000,0.630000,0.620000,0.630000,0.370000,0.380000 /
&OBST ID='north_28' SURF_ID='Red bc'
      XB=0.380000,0.620000,0.610000,0.620000,0.380000,0.390000 /
&OBST ID='north_29' SURF_ID='Red bc'
      XB=0.390000,0.610000,0.600000,0.610000,0.390000,0.400000 /
&OBST ID='north_3' SURF_ID='Red bc'
      XB=0.130000,0.870000,0.860000,0.870000,0.130000,0.140000 /
&OBST ID='north_30' SURF_ID='Red bc'
      XB=0.400000,0.600000,0.590000,0.600000,0.400000,0.410000 /
&OBST ID='north_31' SURF_ID='Red bc'
      XB=0.410000,0.590000,0.580000,0.590000,0.410000,0.420000 /
&OBST ID='north_32' SURF_ID='Red bc'
      XB=0.420000,0.580000,0.570000,0.580000,0.420000,0.430000 /
&OBST ID='north_33' SURF_ID='Red bc'
      XB=0.430000,0.570000,0.560000,0.570000,0.430000,0.440000 /
&OBST ID='north_34' SURF_ID='Red bc'
      XB=0.440000,0.560000,0.550000,0.560000,0.440000,0.450000 /
&OBST ID='north_35' SURF_ID='Red bc'
      XB=0.450000,0.550000,0.540000,0.550000,0.450000,0.460000 /
&OBST ID='north_36' SURF_ID='Red bc'
      XB=0.460000,0.540000,0.530000,0.540000,0.460000,0.470000 /
&OBST ID='north_37' SURF_ID='Red bc'
      XB=0.470000,0.530000,0.520000,0.530000,0.470000,0.480000 /
&OBST ID='north_38' SURF_ID='Red bc'
      XB=0.480000,0.520000,0.510000,0.520000,0.480000,0.490000 /
&OBST ID='north_39' SURF_ID='Red bc'
      XB=0.490000,0.510000,0.500000,0.510000,0.490000,0.500000 /
&OBST ID='north_4' SURF_ID='Red bc'
      XB=0.140000,0.860000,0.850000,0.860000,0.140000,0.150000 /
&OBST ID='north_5' SURF_ID='Red bc'
      XB=0.150000,0.850000,0.840000,0.850000,0.150000,0.160000 /
&OBST ID='north_6' SURF_ID='Red bc'
      XB=0.160000,0.840000,0.830000,0.840000,0.160000,0.170000 /
&OBST ID='north_7' SURF_ID='Red bc'
      XB=0.170000,0.830000,0.820000,0.830000,0.170000,0.180000 /
&OBST ID='north_8' SURF_ID='Red bc'
      XB=0.180000,0.820000,0.810000,0.820000,0.180000,0.190000 /
&OBST ID='north_9' SURF_ID='Red bc'
      XB=0.190000,0.810000,0.800000,0.810000,0.190000,0.200000 /
&OBST ID='south_0' SURF_ID='Dark red bc'
      XB=0.100000,0.900000,0.100000,0.110000,0.100000,0.110000 /
&OBST ID='south_1' SURF_ID='Dark red bc'
      XB=0.110000,0.890000,0.110000,0.120000,0.110000,0.120000 /
&OBST ID='south_10' SURF_ID='Dark red bc'
      XB=0.200000,0.800000,0.200000,0.210000,0.200000,0.210000 /
&OBST ID='south_11' SURF_ID='Dark red bc'
      XB=0.210000,0.790000,0.210000,0.220000,0.210000,0.220000 /
&OBST ID='south_12' SURF_ID='Dark red bc'
      XB=0.220000,0.780000,0.220000,0.230000,0.220000,0.230000 /
&OBST ID='south_13' SURF_ID='Dark red bc'
      XB=0.230000,0.770000,0.230000,0.240000,0.230000,0.240000 /
&OBST ID='south_14' SURF_ID='Dark red bc'
      XB=0.240000,0.760000,0.240000,0.250000,0.240000,0.250000 /
&OBST ID='south_15' SURF_ID='Dark red bc'
      XB=0.250000,0.750000,0.250000,0.260000,0.250000,0.260000 /
&OBST ID='south_16' SURF_ID='Dark red bc'
      XB=0.260000,0.740000,0.260000,0.270000,0.260000,0.270000 /
&OBST ID='south_17' SURF_ID='Dark red bc'
      XB=0.270000,0.730000,0.270000,0.280000,0.270000,0.280000 /
&OBST ID='south_18' SURF_ID='Dark red bc'
      XB=0.280000,0.720000,0.280000,0.290000,0.280000,0.290000 /
&OBST ID='south_19' SURF_ID='Dark red bc'
      XB=0.290000,0.710000,0.290000,0.300000,0.290000,0.300000 /
&OBST ID='south_2' SURF_ID='Dark red bc'
      XB=0.120000,0.880000,0.120000,0.130000,0.120000,0.130000 /
&OBST ID='south_20' SURF_ID='Dark red bc'
      XB=0.300000,0.700000,0.300000,0.310000,0.300000,0.310000 /
&OBST ID='south_21' SURF_ID='Dark red bc'
      XB=0.310000,0.690000,0.310000,0.320000,0.310000,0.320000 /
&OBST ID='south_22' SURF_ID='Dark red bc'
      XB=0.320000,0.680000,0.320000,0.330000,0.320000,0.330000 /
&OBST ID='south_23' SURF_ID='Dark red bc'
      XB=0.330000,0.670000,0.330000,0.340000,0.330000,0.340000 /
&OBST ID='south_24' SURF_ID='Dark red bc'
      XB=0.340000,0.660000,0.340000,0.350000,0.340000,0.350000 /
&OBST ID='south_25' SURF_ID='Dark red bc'
      XB=0.350000,0.650000,0.350000,0.360000,0.350000,0.360000 /
&OBST ID='south_26' SURF_ID='Dark red bc'
      XB=0.360000,0.640000,0.360000,0.370000,0.360000,0.370000 /
&OBST ID='south_27' SURF_ID='Dark red bc'
      XB=0.370000,0.630000,0.370000,0.380000,0.370000,0.380000 /
&OBST ID='south_28' SURF_ID='Dark red bc'
      XB=0.380000,0.620000,0.380000,0.390000,0.380000,0.390000 /
&OBST ID='south_29' SURF_ID='Dark red bc'
      XB=0.390000,0.610000,0.390000,0.400000,0.390000,0.400000 /
&OBST ID='south_3' SURF_ID='Dark red bc'
      XB=0.130000,0.870000,0.130000,0.140000,0.130000,0.140000 /
&OBST ID='south_30' SURF_ID='Dark red bc'
      XB=0.400000,0.600000,0.400000,0.410000,0.400000,0.410000 /
&OBST ID='south_31' SURF_ID='Dark red bc'
      XB=0.410000,0.590000,0.410000,0.420000,0.410000,0.420000 /
&OBST ID='south_32' SURF_ID='Dark red bc'
      XB=0.420000,0.580000,0.420000,0.430000,0.420000,0.430000 /
&OBST ID='south_33' SURF_ID='Dark red bc'
      XB=0.430000,0.570000,0.430000,0.440000,0.430000,0.440000 /
&OBST ID='south_34' SURF_ID='Dark red bc'
      XB=0.440000,0.560000,0.440000,0.450000,0.440000,0.450000 /
&OBST ID='south_35' SURF_ID='Dark red bc'
      XB=0.450000,0.550000,0.450000,0.460000,0.450000,0.460000 /
&OBST ID='south_36' SURF_ID='Dark red bc'
      XB=0.460000,0.540000,0.460000,0.470000,0.460000,0.470000 /
&OBST ID='south_37' SURF_ID='Dark red bc'
      XB=0.470000,0.530000,0.470000,0.480000,0.470000,0.480000 /
&OBST ID='south_38' SURF_ID='Dark red bc'
      XB=0.480000,0.520000,0.480000,0.490000,0.480000,0.490000 /
&OBST ID='south_39' SURF_ID='Dark red bc'
      XB=0.490000,0.510000,0.490000,0.500000,0.490000,0.500000 /
&OBST ID='south_4' SURF_ID='Dark red bc'
      XB=0.140000,0.860000,0.140000,0.150000,0.140000,0.150000 /
&OBST ID='south_5' SURF_ID='Dark red bc'
      XB=0.150000,0.850000,0.150000,0.160000,0.150000,0.160000 /
&OBST ID='south_6' SURF_ID='Dark red bc'
      XB=0.160000,0.840000,0.160000,0.170000,0.160000,0.170000 /
&OBST ID='south_7' SURF_ID='Dark red bc'
      XB=0.170000,0.830000,0.170000,0.180000,0.170000,0.180000 /
&OBST ID='south_8' SURF_ID='Dark red bc'
      XB=0.180000,0.820000,0.180000,0.190000,0.180000,0.190000 /
&OBST ID='south_9' SURF_ID='Dark red bc'
      XB=0.190000,0.810000,0.190000,0.200000,0.190000,0.200000 /
&OBST ID='west_0' SURF_ID='Dark green bc'
      XB=0.100000,0.110000,0.110000,0.890000,0.100000,0.110000 /
&OBST ID='west_1' SURF_ID='Dark green bc'
      XB=0.110000,0.120000,0.120000,0.880000,0.110000,0.120000 /
&OBST ID='west_10' SURF_ID='Dark green bc'
      XB=0.200000,0.210000,0.210000,0.790000,0.200000,0.210000 /
&OBST ID='west_11' SURF_ID='Dark green bc'
      XB=0.210000,0.220000,0.220000,0.780000,0.210000,0.220000 /
&OBST ID='west_12' SURF_ID='Dark green bc'
      XB=0.220000,0.230000,0.230000,0.770000,0.220000,0.230000 /
&OBST ID='west_13' SURF_ID='Dark green bc'
      XB=0.230000,0.240000,0.240000,0.760000,0.230000,0.240000 /
&OBST ID='west_14' SURF_ID='Dark green bc'
      XB=0.240000,0.250000,0.250000,0.750000,0.240000,0.250000 /
&OBST ID='west_15' SURF_ID='Dark green bc'
      XB=0.250000,0.260000,0.260000,0.740000,0.250000,0.260000 /
&OBST ID='west_16' SURF_ID='Dark green bc'
      XB=0.260000,0.270000,0.270000,0.730000,0.260000,0.270000 /
&OBST ID='west_17' SURF_ID='Dark green bc'
      XB=0.270000,0.280000,0.280000,0.720000,0.270000,0.280000 /
&OBST ID='west_18' SURF_ID='Dark green bc'
      XB=0.280000,0.290000,0.290000,0.710000,0.280000,0.290000 /
&OBST ID='west_19' SURF_ID='Dark green bc'
      XB=0.290000,0.300000,0.300000,0.700000,0.290000,0.300000 /
&OBST ID='west_2' SURF_ID='Dark green bc'
      XB=0.120000,0.130000,0.130000,0.870000,0.120000,0.130000 /
&OBST ID='west_20' SURF_ID='Dark green bc'
      XB=0.300000,0.310000,0.310000,0.690000,0.300000,0.310000 /
&OBST ID='west_21' SURF_ID='Dark green bc'
      XB=0.310000,0.320000,0.320000,0.680000,0.310000,0.320000 /
&OBST ID='west_22' SURF_ID='Dark green bc'
      XB=0.320000,0.330000,0.330000,0.670000,0.320000,0.330000 /
&OBST ID='west_23' SURF_ID='Dark green bc'
      XB=0.330000,0.340000,0.340000,0.660000,0.330000,0.340000 /
&OBST ID='west_24' SURF_ID='Dark green bc'
      XB=0.340000,0.350000,0.350000,0.650000,0.340000,0.350000 /
&OBST ID='west_25' SURF_ID='Dark green bc'
      XB=0.350000,0.360000,0.360000,0.640000,0.350000,0.360000 /
&OBST ID='west_26' SURF_ID='Dark green bc'
      XB=0.360000,0.370000,0.370000,0.630000,0.360000,0.370000 /
&OBST ID='west_27' SURF_ID='Dark green bc'
      XB=0.370000,0.380000,0.380000,0.620000,0.370000,0.380000 /
&OBST ID='west_28' SURF_ID='Dark green bc'
      XB=0.380000,0.390000,0.390000,0.610000,0.380000,0.390000 /
&OBST ID='west_29' SURF_ID='Dark green bc'
      XB=0.390000,0.400000,0.400000,0.600000,0.390000,0.400000 /
&OBST ID='west_3' SURF_ID='Dark green bc'
      XB=0.130000,0.140000,0.140000,0.860000,0.130000,0.140000 /
&OBST ID='west_30' SURF_ID='Dark green bc'
      XB=0.400000,0.410000,0.410000,0.590000,0.400000,0.410000 /
&OBST ID='west_31' SURF_ID='Dark green bc'
      XB=0.410000,0.420000,0.420000,0.580000,0.410000,0.420000 /
&OBST ID='west_32' SURF_ID='Dark green bc'
      XB=0.420000,0.430000,0.430000,0.570000,0.420000,0.430000 /
&OBST ID='west_33' SURF_ID='Dark green bc'
      XB=0.430000,0.440000,0.440000,0.560000,0.430000,0.440000 /
&OBST ID='west_34' SURF_ID='Dark green bc'
      XB=0.440000,0.450000,0.450000,0.550000,0.440000,0.450000 /
&OBST ID='west_35' SURF_ID='Dark green bc'
      XB=0.450000,0.460000,0.460000,0.540000,0.450000,0.460000 /
&OBST ID='west_36' SURF_ID='Dark green bc'
      XB=0.460000,0.470000,0.470000,0.530000,0.460000,0.470000 /
&OBST ID='west_37' SURF_ID='Dark green bc'
      XB=0.470000,0.480000,0.480000,0.520000,0.470000,0.480000 /
&OBST ID='west_38' SURF_ID='Dark green bc'
      XB=0.480000,0.490000,0.490000,0.510000,0.480000,0.490000 /
&OBST ID='west_39' SURF_ID='Dark green bc'
      XB=0.490000,0.500000,0.500000,0.500000,0.490000,0.500000 /
&OBST ID='west_4' SURF_ID='Dark green bc'
      XB=0.140000,0.150000,0.150000,0.850000,0.140000,0.150000 /
&OBST ID='west_5' SURF_ID='Dark green bc'
      XB=0.150000,0.160000,0.160000,0.840000,0.150000,0.160000 /
&OBST ID='west_6' SURF_ID='Dark green bc'
      XB=0.160000,0.170000,0.170000,0.830000,0.160000,0.170000 /
&OBST ID='west_7' SURF_ID='Dark green bc'
      XB=0.170000,0.180000,0.180000,0.820000,0.170000,0.180000 /
&OBST ID='west_8' SURF_ID='Dark green bc'
      XB=0.180000,0.190000,0.190000,0.810000,0.180000,0.190000 /
&OBST ID='west_9' SURF_ID='Dark green bc'
      XB=0.190000,0.200000,0.200000,0.800000,0.190000,0.200000 /

&TAIL /
 
