! Generated by BlenderFDS 6.0.0 on Blender 3.2.0 Beta
! Date: Sat, 21 May 2022, 13:49:58
! File: /tmp/tmpq7vu2ntb/XB_FACE_and_XYZ.blend

--- Case from Blender Scene: <XB_FACE_and_XYZ> | View Layer: <ViewLayer>

&HEAD CHID='XB_FACE_and_XYZ' /
&TIME T_END=1.0 /

--- Boundary conditions from Blender Materials

&SURF ID='Blue bc' RGB=0,0,255 /

--- Computational domain | MPI Processes: 1 | MESH Qty: 1 | Cell Qty: 1000

-- MPI Process: <0> | MESH Qty: 1 | Cell Qty: 1000
Cell Qty: 1000 | Size: 0.400·0.400·0.400m | Aspect: 1.0 | Poisson: Yes
&MESH ID='Domain' IJK=10,10,10 XB=-2.0000,2.0000,-2.0000,2.0000,-2.0000,2.0000
      MPI_PROCESS=0 /

--- Geometric namelists from Blender Collections

-- Blender Collection: <New Obstacles>
&VENT ID='New VENT' SURF_ID='Blue bc'
      XB=-1.0000,1.0000,-1.0000,1.0000,-2.0000,-2.0000 XYZ=0.0000,0.0000,-1.0000 /

&TAIL /
