! Generated by BlenderFDS 6.0.0 on Blender 3.2.0 Beta
! Date: Fri, 13 May 2022, 16:39:40
! File: /home/egissi/github/blenderfds/startup.blend
--- Case from Blender Scene: <XB_FACE_and_XYZ> | View Layer: <ViewLayer>
&HEAD CHID='XB_FACE_and_XYZ' /
&TIME T_END=1.0 /

--- Boundary conditions from Blender Materials
&SURF ID='Blue bc' RGB=0,0,255 /
&SURF ID='Dark blue bc' RGB=0,0,50 /
&SURF ID='Dark green bc' RGB=0,50,0 /
&SURF ID='Dark red bc' RGB=50,0,0 /
&SURF ID='Green bc' RGB=0,255,0 /
&SURF ID='Red bc' RGB=255,0,0 /

--- Geometric namelists from Blender Collections

--- Blender Collection: <New Domain>
MESH Qty: 1 | Splits: 1 | Multiples: 1
Cell Qty: 1000 (~1000 each)
Size: 0.400 · 0.400 · 0.400m | Aspect: 1.0 | Poisson: Yes
&MESH ID='Domain' IJK=10,10,10 XB=-2.0000,2.0000,-2.0000,2.0000,-2.0000,2.0000 /

--- Blender Collection: <New Obstacles>
&VENT ID='New VENT' SURF_ID='Blue bc'
      XB=-1.0000,1.0000,-1.0000,1.0000,-2.0000,-2.0000 XYZ=0.0000,0.0000,-1.0000 /

&TAIL /
