&HEAD CHID='geom_xb_move_reuse' /
&TIME T_END=1.0 /

&SURF ID='Red bc' RGB=255,0,0 /
&SURF ID='Green bc' RGB=0,255,0 /
&SURF ID='Blue bc' RGB=0,0,255 /
&SURF ID='Dark red bc' RGB=50,0,0 /
&SURF ID='Dark green bc' RGB=0,50,0 /
&SURF ID='Dark blue bc' RGB=0,0,50 /

&MESH ID='Domain' IJK=10,10,10
      XB=-2.000000,2.000000,-2.000000,2.000000,-2.000000,2.000000 /

&MOVE ID='Cube001' DX=1. DY=2. DZ=3. / reused, the three cubes should be aligned along the x axis

&GEOM ID='Cube001'
      SURF_ID6='Dark red bc','Red bc','Dark green bc','Green bc','Dark blue bc','Blue bc'
      MOVE_ID='Cube001'
      XB=-1.000000,1.000000,-1.000000,1.000000,-1.000000,1.000000 /

&GEOM ID='Cube002'
      SURF_ID6='Dark red bc','Red bc','Dark green bc','Green bc','Dark blue bc','Blue bc'
      MOVE_ID='Cube001'
      XB=4.000000,6.000000,-1.000000,1.000000,-1.000000,1.000000 /

&GEOM ID='Cube003'
      SURF_ID6='Dark red bc','Red bc','Dark green bc','Green bc','Dark blue bc','Blue bc'
      MOVE_ID='Cube001'
      XB=9.000000,11.000000,-1.000000,1.000000,-1.000000,1.000000 /
