! Generated by BlenderFDS 6.0.0 on Blender 3.2.0 Beta
! Date: Sat, 21 May 2022, 13:46:39
! File: ···nderfds.verification/tests/geometries_export/./bl/geom_geometry.blend

--- Case from Blender Scene: <geom_shared_bingeom> | View Layer: <View Layer>

&HEAD CHID='geom_shared_bingeom' /
&TIME T_END=1.0 /

--- Boundary conditions from Blender Materials

&SURF ID='Material_blue' RGB=0,16,204 /
&SURF ID='Material_red' RGB=255,0,0 /

--- Computational domain | MPI Processes: 1 | MESH Qty: 1 | Cell Qty: 8000

-- MPI Process: <0> | MESH Qty: 1 | Cell Qty: 8000
Cell Qty: 8000 | Size: 0.100·0.100·0.100m | Aspect: 1.0 | Poisson: Yes
&MESH ID='Domain' IJK=20,20,20 XB=-1.0000,1.0000,-1.0000,1.0000,-1.0000,1.0000
      MPI_PROCESS=0 /

--- Geometric namelists from Blender Collections
Vertices: 12 | Faces: 12 | Shared BINARY_FILE
&GEOM ID='Tet.002' SURF_ID='INERT','Material_red','Material_blue'
      BINARY_FILE='Tet_01.bingeom' MOVE_ID='Tet.002_move' /
&MOVE ID='Tet.002_move' T34=0.433013,0.250000,0.000000,-0.241481,0.418258,
      0.129410,0.258819,-0.448288,1.931852,0.800000,0.500000,-0.500000 /
Vertices: 12 | Faces: 12 | Shared BINARY_FILE
&GEOM ID='Tet.003' SURF_ID='INERT','Material_red','Material_blue'
      BINARY_FILE='Tet_01.bingeom' MOVE_ID='Tet.003_move' /
&MOVE ID='Tet.003_move' T34=0.433013,-0.250000,0.000000,0.241481,0.418258,
      0.129410,-0.258819,-0.448288,1.931852,-0.800000,0.500000,-0.500000 /
Vertices: 12 | Faces: 12 | Shared BINARY_FILE
&GEOM ID='Tet.004' SURF_ID='INERT','Material_red','Material_blue'
      BINARY_FILE='Tet_01.bingeom' MOVE_ID='Tet.004_move' /
&MOVE ID='Tet.004_move' T34=0.482963,0.129410,0.000000,-0.125000,0.466506,
      0.129410,0.133975,-0.500000,1.931852,0.800000,-0.500000,-0.500000 /
Vertices: 12 | Faces: 12 | Shared BINARY_FILE
&GEOM ID='Tet.005' SURF_ID='INERT','Material_red','Material_blue'
      BINARY_FILE='Tet_01.bingeom' MOVE_ID='Tet.005_move' /
&MOVE ID='Tet.005_move' T34=0.482963,-0.129410,0.000000,0.125000,0.466506,
      0.129410,-0.133975,-0.500000,1.931852,-0.800000,-0.500000,-0.500000 /
Vertices: 12 | Faces: 12 | Shared BINARY_FILE
&GEOM ID='Tet.007' SURF_ID='INERT','Material_red','Material_blue'
      BINARY_FILE='Tet_01.bingeom' MOVE_ID='Tet.007_move' /
&MOVE ID='Tet.007_move' T34=1.000000,0.000000,0.000000,0.000000,1.000000,
      0.000000,0.000000,0.000000,2.000000,0.000000,-0.200000,-0.500000 /

&TAIL /
