! Generated by BlenderFDS 6.0.0 on Blender 3.2.0 Beta
! Date: Sat, 21 May 2022, 13:57:45
! File: ···issi/github/blenderfds.verification/tests/MESH_export/./bl/MESH.blend

--- Case from Blender Scene: <split_mesh> | View Layer: <View Layer>

&HEAD CHID='split_mesh' TITLE='Testing splits' /
&TIME T_END=0.1 /

--- Computational domain | MPI Processes: 1 | MESH Qty: 12 | Cell Qty: 1848

-- MPI Process: <0> | MESH Qty: 12 | Cell Qty: 1848
Cell Qty: 180 | Size: 0.364·0.333·0.286m | Aspect: 1.3 | Poisson: No
&MESH ID='Domain_s0' IJK=6,6,5 XB=-1.5000,0.6818,-1.0000,1.0000,0.0000,1.4286
      FYI='Testing splits' MPI_PROCESS=0 /
Cell Qty: 180 | Size: 0.364·0.333·0.286m | Aspect: 1.3 | Poisson: No
&MESH ID='Domain_s1' IJK=6,6,5 XB=-1.5000,0.6818,-1.0000,1.0000,1.4286,2.8571
      FYI='Testing splits' MPI_PROCESS=0 /
Cell Qty: 180 | Size: 0.364·0.333·0.286m | Aspect: 1.3 | Poisson: No
&MESH ID='Domain_s3' IJK=6,6,5 XB=-1.5000,0.6818,1.0000,3.0000,0.0000,1.4286
      FYI='Testing splits' MPI_PROCESS=0 /
Cell Qty: 180 | Size: 0.364·0.333·0.286m | Aspect: 1.3 | Poisson: No
&MESH ID='Domain_s4' IJK=6,6,5 XB=-1.5000,0.6818,1.0000,3.0000,1.4286,2.8571
      FYI='Testing splits' MPI_PROCESS=0 /
Cell Qty: 150 | Size: 0.364·0.333·0.286m | Aspect: 1.3 | Poisson: No
&MESH ID='Domain_s6' IJK=5,6,5 XB=0.6818,2.5000,-1.0000,1.0000,0.0000,1.4286
      FYI='Testing splits' MPI_PROCESS=0 /
Cell Qty: 150 | Size: 0.364·0.333·0.286m | Aspect: 1.3 | Poisson: No
&MESH ID='Domain_s7' IJK=5,6,5 XB=0.6818,2.5000,-1.0000,1.0000,1.4286,2.8571
      FYI='Testing splits' MPI_PROCESS=0 /
Cell Qty: 150 | Size: 0.364·0.333·0.286m | Aspect: 1.3 | Poisson: No
&MESH ID='Domain_s9' IJK=5,6,5 XB=0.6818,2.5000,1.0000,3.0000,0.0000,1.4286
      FYI='Testing splits' MPI_PROCESS=0 /
Cell Qty: 150 | Size: 0.364·0.333·0.286m | Aspect: 1.3 | Poisson: No
&MESH ID='Domain_s10' IJK=5,6,5 XB=0.6818,2.5000,1.0000,3.0000,1.4286,2.8571
      FYI='Testing splits' MPI_PROCESS=0 /
Cell Qty: 144 | Size: 0.364·0.333·0.286m | Aspect: 1.3 | Poisson: No
&MESH ID='Domain_s2' IJK=6,6,4 XB=-1.5000,0.6818,-1.0000,1.0000,2.8571,4.0000
      FYI='Testing splits' MPI_PROCESS=0 /
Cell Qty: 144 | Size: 0.364·0.333·0.286m | Aspect: 1.3 | Poisson: No
&MESH ID='Domain_s5' IJK=6,6,4 XB=-1.5000,0.6818,1.0000,3.0000,2.8571,4.0000
      FYI='Testing splits' MPI_PROCESS=0 /
Cell Qty: 120 | Size: 0.364·0.333·0.286m | Aspect: 1.3 | Poisson: No
&MESH ID='Domain_s8' IJK=5,6,4 XB=0.6818,2.5000,-1.0000,1.0000,2.8571,4.0000
      FYI='Testing splits' MPI_PROCESS=0 /
Cell Qty: 120 | Size: 0.364·0.333·0.286m | Aspect: 1.3 | Poisson: No
&MESH ID='Domain_s11' IJK=5,6,4 XB=0.6818,2.5000,1.0000,3.0000,2.8571,4.0000
      FYI='Testing splits' MPI_PROCESS=0 /

&TAIL /
