&HEAD CHID='geom_xb_move_t34' /
&TIME T_END=1.0 /

&SURF ID='Red bc' RGB=255,0,0 /
&SURF ID='Green bc' RGB=0,255,0 /
&SURF ID='Blue bc' RGB=0,0,255 /
&SURF ID='Dark red bc' RGB=50,0,0 /
&SURF ID='Dark green bc' RGB=0,50,0 /
&SURF ID='Dark blue bc' RGB=0,0,50 /

&MESH ID='Domain' IJK=10,10,10
      XB=-2.000000,2.000000,-2.000000,2.000000,-2.000000,2.000000 /

&MOVE ID='Cube001' T34 = 1.,0.,0.,   0.,1.,0.,   0.,0.,1.,   0.,0.,0. /
&GEOM ID='Cube'
      SURF_ID6='Dark red bc','Red bc','Dark green bc','Green bc','Dark blue bc','Blue bc'
      MOVE_ID='Cube001'
      XB=-1.000000,1.000000,-1.000000,1.000000,-1.000000,1.000000 /
      
&MOVE ID='Cube011' T34 = 1.,0.,0.,   0.,1.,0.,   0.,0.,1.,   1.,2.,3. /
&GEOM ID='Cube translate 1.,2.,3.'
      SURF_ID6='Dark red bc','Red bc','Dark green bc','Green bc','Dark blue bc','Blue bc'
      MOVE_ID='Cube011'
      XB=-1.000000,1.000000,-1.000000,1.000000,-1.000000,1.000000 /
           
&MOVE ID='Cube021' T34 = 0.866,.5,0.,   -.5,0.866,0.,   0.,0.,1.,   5.,0.,0. /
&GEOM ID='Cube 30°z'
      SURF_ID6='Dark red bc','Red bc','Dark green bc','Green bc','Dark blue bc','Blue bc'
      MOVE_ID='Cube021'
      XB=-1.000000,1.000000,-1.000000,1.000000,-1.000000,1.000000 /      

&MOVE ID='Cube031' T34 = 0.866,0.500,0.,   -0.483,0.836,0.258,   0.129,-0.224,0.965,   10.,0.,0. /
&GEOM ID='Cube 30°z 15°x'
      SURF_ID6='Dark red bc','Red bc','Dark green bc','Green bc','Dark blue bc','Blue bc'
      MOVE_ID='Cube031'
      XB=-1.000000,1.000000,-1.000000,1.000000,-1.000000,1.000000 /           
      
&MOVE ID='Cube041' T34 = 0.866,0.500,0.,   -0.483,0.836,0.258,   0.129,1.,0.965,   15.,0.,0. /
&GEOM ID='Cube 30°z 15°x other'
      SURF_ID6='Dark red bc','Red bc','Dark green bc','Green bc','Dark blue bc','Blue bc'
      MOVE_ID='Cube041'
      XB=-1.000000,1.000000,-1.000000,1.000000,-1.000000,1.000000 /    
      
&TAIL /

