! Generated by BlenderFDS 6.0.0 on Blender 3.2.0 Beta
! Date: Sat, 21 May 2022, 13:46:52
! File: ···ds.verification/tests/geometries_export/./bl/xb_xyz_pb_geometry.blend

--- Case from Blender Scene: <xb_bbox_solid+xyz_vertices> | View Layer: <View Layer>

&HEAD CHID='xb_bbox_solid+xyz_vertices'
      TITLE='Test bbox on rotated, moved, and scaled solid' /
&TIME T_END=1.0 /

--- Computational domain | MPI Processes: 1 | MESH Qty: 1 | Cell Qty: 8000

-- MPI Process: <0> | MESH Qty: 1 | Cell Qty: 8000
Cell Qty: 8000 | Size: 0.100·0.100·0.100m | Aspect: 1.0 | Poisson: Yes
&MESH ID='Domain.001' IJK=20,20,20
      XB=-1.0000,1.0000,-1.0000,1.0000,-1.0000,1.0000 MPI_PROCESS=0 /

--- Geometric namelists from Blender Collections
XYZ Vertices: 8
&DEVC ID='Cube_bbox.001_0' XYZ=-0.2218,1.3731,-0.7753 QUANTITY='TEMPERATURE'
      XB=-0.2218,2.2218,-0.2425,2.2425,-1.6912,-0.3088 /
&DEVC ID='Cube_bbox.001_1' XYZ=-0.0488,1.3236,-0.3088 QUANTITY='TEMPERATURE'
      XB=-0.2218,2.2218,-0.2425,2.2425,-1.6912,-0.3088 /
&DEVC ID='Cube_bbox.001_2' XYZ=0.5431,-0.1929,-1.2253 QUANTITY='TEMPERATURE'
      XB=-0.2218,2.2218,-0.2425,2.2425,-1.6912,-0.3088 /
&DEVC ID='Cube_bbox.001_3' XYZ=0.7161,-0.2425,-0.7588 QUANTITY='TEMPERATURE'
      XB=-0.2218,2.2218,-0.2425,2.2425,-1.6912,-0.3088 /
&DEVC ID='Cube_bbox.001_4' XYZ=1.2839,2.2425,-1.2412 QUANTITY='TEMPERATURE'
      XB=-0.2218,2.2218,-0.2425,2.2425,-1.6912,-0.3088 /
&DEVC ID='Cube_bbox.001_5' XYZ=1.4569,2.1929,-0.7747 QUANTITY='TEMPERATURE'
      XB=-0.2218,2.2218,-0.2425,2.2425,-1.6912,-0.3088 /
&DEVC ID='Cube_bbox.001_6' XYZ=2.0488,0.6764,-1.6912 QUANTITY='TEMPERATURE'
      XB=-0.2218,2.2218,-0.2425,2.2425,-1.6912,-0.3088 /
&DEVC ID='Cube_bbox.001_7' XYZ=2.2218,0.6269,-1.2247 QUANTITY='TEMPERATURE'
      XB=-0.2218,2.2218,-0.2425,2.2425,-1.6912,-0.3088 /

&TAIL /
