! Generated by BlenderFDS 6.0.0 on Blender 3.2.0 Beta
! Date: Sat, 21 May 2022, 13:47:08
! File: ···ds.verification/tests/geometries_export/./bl/xb_xyz_pb_geometry.blend

--- Case from Blender Scene: <xb_voxels_solid_indexes> | View Layer: <View Layer>

&HEAD CHID='xb_voxels_solid_indexes' TITLE='Test voxel indexes' /
&TIME T_END=1.0 /

--- Computational domain | MPI Processes: 1 | MESH Qty: 1 | Cell Qty: 8000

-- MPI Process: <0> | MESH Qty: 1 | Cell Qty: 8000
Cell Qty: 8000 | Size: 0.100·0.100·0.100m | Aspect: 1.0 | Poisson: Yes
&MESH ID='Domain' IJK=20,20,20 XB=-1.0000,1.0000,-1.0000,1.0000,-1.0000,1.0000
      MPI_PROCESS=0 /

--- Geometric namelists from Blender Collections
&OBST ID='Cube_index' SURF_ID='INERT' /
XB Voxels: 64 | Resolution: 0.050 m
&OBST ID='Cube_x_x+0.800' XB=0.7999,0.8501,0.1999,0.2501,-0.0001,0.0501
      SURF_ID='INERT' /
&OBST ID='Cube_x_x+0.750' XB=0.7499,0.8501,0.1999,0.2501,-0.0501,0.0001
      SURF_ID='INERT' /
&OBST ID='Cube_x_x+0.650' XB=0.6499,0.8501,0.1999,0.2501,-0.1001,-0.0499
      SURF_ID='INERT' /
&OBST ID='Cube_x_x+0.600' XB=0.5999,0.8001,0.1999,0.2501,-0.1501,-0.0999
      SURF_ID='INERT' /
&OBST ID='Cube_x_x+0.750' XB=0.7499,0.9001,0.1499,0.2001,0.1499,0.2001
      SURF_ID='INERT' /
&OBST ID='Cube_x_x+0.700' XB=0.6999,0.9001,0.1499,0.2001,0.0999,0.1501
      SURF_ID='INERT' /
&OBST ID='Cube_x_x+0.600' XB=0.5999,0.9001,0.1499,0.2001,0.0499,0.1001
      SURF_ID='INERT' /
&OBST ID='Cube_x_x+0.550' XB=0.5499,0.8501,0.1499,0.2001,-0.0001,0.0501
      SURF_ID='INERT' /
&OBST ID='Cube_x_x+0.500' XB=0.4999,0.8501,0.1499,0.2001,-0.0501,0.0001
      SURF_ID='INERT' /
&OBST ID='Cube_x_x+0.400' XB=0.3999,0.8501,0.1499,0.2001,-0.1001,-0.0499
      SURF_ID='INERT' /
&OBST ID='Cube_x_x+0.550' XB=0.5499,0.8501,0.1499,0.2001,-0.1501,-0.0999
      SURF_ID='INERT' /
&OBST ID='Cube_x_x+0.700' XB=0.6999,0.8001,0.1499,0.2501,-0.2001,-0.1499
      SURF_ID='INERT' /
&OBST ID='Cube_x_x+0.550' XB=0.5499,0.7501,0.0999,0.1501,0.1999,0.2501
      SURF_ID='INERT' /
&OBST ID='Cube_x_x+0.500' XB=0.4999,0.9001,0.0999,0.1501,0.0999,0.2001
      SURF_ID='INERT' /
&OBST ID='Cube_x_x+0.450' XB=0.4499,0.9001,0.0999,0.1501,0.0499,0.1001
      SURF_ID='INERT' /
&OBST ID='Cube_x_x+0.450' XB=0.4499,0.8501,0.0999,0.1501,-0.0501,0.0001
      SURF_ID='INERT' /
&OBST ID='Cube_x_x+0.500' XB=0.4999,0.8501,0.0999,0.1501,-0.1501,-0.0999
      SURF_ID='INERT' /
&OBST ID='Cube_x_x+0.500' XB=0.4999,0.8501,0.0499,0.1001,0.1499,0.2001
      SURF_ID='INERT' /
&OBST ID='Cube_x_x+0.500' XB=0.4999,0.9001,0.0499,0.1001,0.0499,0.1001
      SURF_ID='INERT' /
&OBST ID='Cube_x_x+0.450' XB=0.4499,0.9001,0.0499,0.1501,-0.0001,0.0501
      SURF_ID='INERT' /
&OBST ID='Cube_x_x+0.450' XB=0.4499,0.8501,0.0499,0.1501,-0.1001,-0.0499
      SURF_ID='INERT' /
&OBST ID='Cube_x_x+0.650' XB=0.6499,0.8501,0.0499,0.1501,-0.2001,-0.1499
      SURF_ID='INERT' /
&OBST ID='Cube_x_x+0.800' XB=0.7999,0.8501,0.0499,0.1001,-0.2501,-0.1999
      SURF_ID='INERT' /
&OBST ID='Cube_x_x+0.550' XB=0.5499,0.7001,-0.0001,0.1001,0.1999,0.2501
      SURF_ID='INERT' /
&OBST ID='Cube_x_x+0.550' XB=0.5499,0.8501,-0.0001,0.0501,0.1499,0.2001
      SURF_ID='INERT' /
&OBST ID='Cube_x_x+0.500' XB=0.4999,0.9501,-0.0001,0.1001,0.0999,0.1501
      SURF_ID='INERT' /
&OBST ID='Cube_x_x+0.500' XB=0.4999,0.9001,-0.0001,0.0501,-0.0001,0.0501
      SURF_ID='INERT' /
&OBST ID='Cube_x_x+0.450' XB=0.4499,0.9001,-0.0001,0.1001,-0.0501,0.0001
      SURF_ID='INERT' /
&OBST ID='Cube_x_x+0.450' XB=0.4499,0.8501,-0.0001,0.1001,-0.1501,-0.0999
      SURF_ID='INERT' /
&OBST ID='Cube_x_x+0.600' XB=0.5999,0.8501,-0.0001,0.0501,-0.2001,-0.1499
      SURF_ID='INERT' /
&OBST ID='Cube_x_x+0.750' XB=0.7499,0.8501,-0.0001,0.0501,-0.2501,-0.1999
      SURF_ID='INERT' /
&OBST ID='Cube_x_x+0.550' XB=0.5499,0.6501,-0.0501,0.0001,0.1999,0.2501
      SURF_ID='INERT' /
&OBST ID='Cube_x_x+0.550' XB=0.5499,0.8001,-0.0501,0.0001,0.1499,0.2001
      SURF_ID='INERT' /
&OBST ID='Cube_x_x+0.500' XB=0.4999,0.9501,-0.0501,0.0501,0.0499,0.1001
      SURF_ID='INERT' /
&OBST ID='Cube_x_x+0.500' XB=0.4999,0.9001,-0.0501,0.0001,-0.0501,0.0001
      SURF_ID='INERT' /
&OBST ID='Cube_x_x+0.450' XB=0.4499,0.9001,-0.0501,0.0501,-0.1001,-0.0499
      SURF_ID='INERT' /
&OBST ID='Cube_x_x+0.550' XB=0.5499,0.8501,-0.0501,0.0001,-0.2001,-0.1499
      SURF_ID='INERT' /
&OBST ID='Cube_x_x+0.550' XB=0.5499,0.6001,-0.1001,-0.0499,0.1999,0.2501
      SURF_ID='INERT' /
&OBST ID='Cube_x_x+0.550' XB=0.5499,0.9501,-0.1001,0.0001,0.0999,0.1501
      SURF_ID='INERT' /
&OBST ID='Cube_x_x+0.500' XB=0.4999,0.9501,-0.1001,0.0001,-0.0001,0.0501
      SURF_ID='INERT' /
&OBST ID='Cube_x_x+0.500' XB=0.4999,0.9001,-0.1001,-0.0499,-0.1001,-0.0499
      SURF_ID='INERT' /
&OBST ID='Cube_x_x+0.450' XB=0.4499,0.9001,-0.1001,0.0001,-0.1501,-0.0999
      SURF_ID='INERT' /
&OBST ID='Cube_x_x+0.550' XB=0.5499,0.9001,-0.1001,-0.0499,-0.2001,-0.1499
      SURF_ID='INERT' /
&OBST ID='Cube_x_x+0.700' XB=0.6999,0.8501,-0.1001,0.0001,-0.2501,-0.1999
      SURF_ID='INERT' /
&OBST ID='Cube_x_x+0.550' XB=0.5499,0.7501,-0.1501,-0.0499,0.1499,0.2001
      SURF_ID='INERT' /
&OBST ID='Cube_x_x+0.550' XB=0.5499,0.9001,-0.1501,-0.0999,0.0999,0.1501
      SURF_ID='INERT' /
&OBST ID='Cube_x_x+0.550' XB=0.5499,0.9501,-0.1501,-0.0499,0.0499,0.1001
      SURF_ID='INERT' /
&OBST ID='Cube_x_x+0.550' XB=0.5499,0.9501,-0.1501,-0.0999,-0.0001,0.0501
      SURF_ID='INERT' /
&OBST ID='Cube_x_x+0.500' XB=0.4999,0.9501,-0.1501,-0.0499,-0.0501,0.0001
      SURF_ID='INERT' /
&OBST ID='Cube_x_x+0.500' XB=0.4999,0.9501,-0.1501,-0.0999,-0.1001,-0.0499
      SURF_ID='INERT' /
&OBST ID='Cube_x_x+0.500' XB=0.4999,0.9001,-0.1501,-0.0999,-0.2001,-0.0999
      SURF_ID='INERT' /
&OBST ID='Cube_x_x+0.650' XB=0.6499,0.8501,-0.1501,-0.0999,-0.2501,-0.1999
      SURF_ID='INERT' /
&OBST ID='Cube_x_x+0.550' XB=0.5499,0.8501,-0.2001,-0.1499,0.0999,0.1501
      SURF_ID='INERT' /
&OBST ID='Cube_x_x+0.550' XB=0.5499,1.0001,-0.2001,-0.1499,0.0499,0.1001
      SURF_ID='INERT' /
&OBST ID='Cube_x_x+0.550' XB=0.5499,0.9001,-0.2001,-0.1499,-0.0001,0.0501
      SURF_ID='INERT' /
&OBST ID='Cube_x_x+0.550' XB=0.5499,0.8501,-0.2001,-0.1499,-0.0501,0.0001
      SURF_ID='INERT' /
&OBST ID='Cube_x_x+0.500' XB=0.4999,0.8001,-0.2001,-0.1499,-0.1001,-0.0499
      SURF_ID='INERT' /
&OBST ID='Cube_x_x+0.500' XB=0.4999,0.7001,-0.2001,-0.1499,-0.1501,-0.0999
      SURF_ID='INERT' /
&OBST ID='Cube_x_x+0.500' XB=0.4999,0.6501,-0.2001,-0.1499,-0.2001,-0.1499
      SURF_ID='INERT' /
&OBST ID='Cube_x_x+0.600' XB=0.5999,0.7001,-0.2501,-0.1499,0.1499,0.2001
      SURF_ID='INERT' /
&OBST ID='Cube_x_x+0.600' XB=0.5999,0.8001,-0.2501,-0.1999,0.0999,0.1501
      SURF_ID='INERT' /
&OBST ID='Cube_x_x+0.550' XB=0.5499,0.7501,-0.2501,-0.1999,0.0499,0.1001
      SURF_ID='INERT' /
&OBST ID='Cube_x_x+0.550' XB=0.5499,0.6501,-0.2501,-0.1999,-0.0001,0.0501
      SURF_ID='INERT' /
&OBST ID='Cube_x_x+0.550' XB=0.5499,0.6001,-0.2501,-0.1999,-0.0501,0.0001
      SURF_ID='INERT' /
XB Voxels: 64 | Resolution: 0.050 m
&OBST ID='Cube_xy_x+0.100_y+0.200' XB=0.0999,0.1501,0.1999,0.2501,-0.0001,0.0501
      SURF_ID='INERT' /
&OBST ID='Cube_xy_x+0.050_y+0.200' XB=0.0499,0.1501,0.1999,0.2501,-0.0501,0.0001
      SURF_ID='INERT' /
&OBST ID='Cube_xy_x-0.050_y+0.200'
      XB=-0.0501,0.1501,0.1999,0.2501,-0.1001,-0.0499 SURF_ID='INERT' /
&OBST ID='Cube_xy_x-0.100_y+0.200'
      XB=-0.1001,0.1001,0.1999,0.2501,-0.1501,-0.0999 SURF_ID='INERT' /
&OBST ID='Cube_xy_x+0.050_y+0.150' XB=0.0499,0.2001,0.1499,0.2001,0.1499,0.2001
      SURF_ID='INERT' /
&OBST ID='Cube_xy_x-0.000_y+0.150' XB=-0.0001,0.2001,0.1499,0.2001,0.0999,0.1501
      SURF_ID='INERT' /
&OBST ID='Cube_xy_x-0.100_y+0.150' XB=-0.1001,0.2001,0.1499,0.2001,0.0499,0.1001
      SURF_ID='INERT' /
&OBST ID='Cube_xy_x-0.150_y+0.150'
      XB=-0.1501,0.1501,0.1499,0.2001,-0.0001,0.0501 SURF_ID='INERT' /
&OBST ID='Cube_xy_x-0.200_y+0.150'
      XB=-0.2001,0.1501,0.1499,0.2001,-0.0501,0.0001 SURF_ID='INERT' /
&OBST ID='Cube_xy_x-0.300_y+0.150'
      XB=-0.3001,0.1501,0.1499,0.2001,-0.1001,-0.0499 SURF_ID='INERT' /
&OBST ID='Cube_xy_x-0.150_y+0.150'
      XB=-0.1501,0.1501,0.1499,0.2001,-0.1501,-0.0999 SURF_ID='INERT' /
&OBST ID='Cube_xy_x-0.000_y+0.150'
      XB=-0.0001,0.1001,0.1499,0.2501,-0.2001,-0.1499 SURF_ID='INERT' /
&OBST ID='Cube_xy_x-0.150_y+0.100' XB=-0.1501,0.0501,0.0999,0.1501,0.1999,0.2501
      SURF_ID='INERT' /
&OBST ID='Cube_xy_x-0.200_y+0.100' XB=-0.2001,0.2001,0.0999,0.1501,0.0999,0.2001
      SURF_ID='INERT' /
&OBST ID='Cube_xy_x-0.250_y+0.100' XB=-0.2501,0.2001,0.0999,0.1501,0.0499,0.1001
      SURF_ID='INERT' /
&OBST ID='Cube_xy_x-0.250_y+0.100'
      XB=-0.2501,0.1501,0.0999,0.1501,-0.0501,0.0001 SURF_ID='INERT' /
&OBST ID='Cube_xy_x-0.200_y+0.100'
      XB=-0.2001,0.1501,0.0999,0.1501,-0.1501,-0.0999 SURF_ID='INERT' /
&OBST ID='Cube_xy_x-0.200_y+0.050' XB=-0.2001,0.1501,0.0499,0.1001,0.1499,0.2001
      SURF_ID='INERT' /
&OBST ID='Cube_xy_x-0.200_y+0.050' XB=-0.2001,0.2001,0.0499,0.1001,0.0499,0.1001
      SURF_ID='INERT' /
&OBST ID='Cube_xy_x-0.250_y+0.050'
      XB=-0.2501,0.2001,0.0499,0.1501,-0.0001,0.0501 SURF_ID='INERT' /
&OBST ID='Cube_xy_x-0.250_y+0.050'
      XB=-0.2501,0.1501,0.0499,0.1501,-0.1001,-0.0499 SURF_ID='INERT' /
&OBST ID='Cube_xy_x-0.050_y+0.050'
      XB=-0.0501,0.1501,0.0499,0.1501,-0.2001,-0.1499 SURF_ID='INERT' /
&OBST ID='Cube_xy_x+0.100_y+0.050'
      XB=0.0999,0.1501,0.0499,0.1001,-0.2501,-0.1999 SURF_ID='INERT' /
&OBST ID='Cube_xy_x-0.150_y-0.000'
      XB=-0.1501,0.0001,-0.0001,0.1001,0.1999,0.2501 SURF_ID='INERT' /
&OBST ID='Cube_xy_x-0.150_y-0.000'
      XB=-0.1501,0.1501,-0.0001,0.0501,0.1499,0.2001 SURF_ID='INERT' /
&OBST ID='Cube_xy_x-0.200_y-0.000'
      XB=-0.2001,0.2501,-0.0001,0.1001,0.0999,0.1501 SURF_ID='INERT' /
&OBST ID='Cube_xy_x-0.200_y-0.000'
      XB=-0.2001,0.2001,-0.0001,0.0501,-0.0001,0.0501 SURF_ID='INERT' /
&OBST ID='Cube_xy_x-0.250_y-0.000'
      XB=-0.2501,0.2001,-0.0001,0.1001,-0.0501,0.0001 SURF_ID='INERT' /
&OBST ID='Cube_xy_x-0.250_y-0.000'
      XB=-0.2501,0.1501,-0.0001,0.1001,-0.1501,-0.0999 SURF_ID='INERT' /
&OBST ID='Cube_xy_x-0.100_y-0.000'
      XB=-0.1001,0.1501,-0.0001,0.0501,-0.2001,-0.1499 SURF_ID='INERT' /
&OBST ID='Cube_xy_x+0.050_y-0.000'
      XB=0.0499,0.1501,-0.0001,0.0501,-0.2501,-0.1999 SURF_ID='INERT' /
&OBST ID='Cube_xy_x-0.150_y-0.050'
      XB=-0.1501,-0.0499,-0.0501,0.0001,0.1999,0.2501 SURF_ID='INERT' /
&OBST ID='Cube_xy_x-0.150_y-0.050'
      XB=-0.1501,0.1001,-0.0501,0.0001,0.1499,0.2001 SURF_ID='INERT' /
&OBST ID='Cube_xy_x-0.200_y-0.050'
      XB=-0.2001,0.2501,-0.0501,0.0501,0.0499,0.1001 SURF_ID='INERT' /
&OBST ID='Cube_xy_x-0.200_y-0.050'
      XB=-0.2001,0.2001,-0.0501,0.0001,-0.0501,0.0001 SURF_ID='INERT' /
&OBST ID='Cube_xy_x-0.250_y-0.050'
      XB=-0.2501,0.2001,-0.0501,0.0501,-0.1001,-0.0499 SURF_ID='INERT' /
&OBST ID='Cube_xy_x-0.150_y-0.050'
      XB=-0.1501,0.1501,-0.0501,0.0001,-0.2001,-0.1499 SURF_ID='INERT' /
&OBST ID='Cube_xy_x-0.150_y-0.100'
      XB=-0.1501,-0.0999,-0.1001,-0.0499,0.1999,0.2501 SURF_ID='INERT' /
&OBST ID='Cube_xy_x-0.150_y-0.100'
      XB=-0.1501,0.2501,-0.1001,0.0001,0.0999,0.1501 SURF_ID='INERT' /
&OBST ID='Cube_xy_x-0.200_y-0.100'
      XB=-0.2001,0.2501,-0.1001,0.0001,-0.0001,0.0501 SURF_ID='INERT' /
&OBST ID='Cube_xy_x-0.200_y-0.100'
      XB=-0.2001,0.2001,-0.1001,-0.0499,-0.1001,-0.0499 SURF_ID='INERT' /
&OBST ID='Cube_xy_x-0.250_y-0.100'
      XB=-0.2501,0.2001,-0.1001,0.0001,-0.1501,-0.0999 SURF_ID='INERT' /
&OBST ID='Cube_xy_x-0.150_y-0.100'
      XB=-0.1501,0.2001,-0.1001,-0.0499,-0.2001,-0.1499 SURF_ID='INERT' /
&OBST ID='Cube_xy_x-0.000_y-0.100'
      XB=-0.0001,0.1501,-0.1001,0.0001,-0.2501,-0.1999 SURF_ID='INERT' /
&OBST ID='Cube_xy_x-0.150_y-0.150'
      XB=-0.1501,0.0501,-0.1501,-0.0499,0.1499,0.2001 SURF_ID='INERT' /
&OBST ID='Cube_xy_x-0.150_y-0.150'
      XB=-0.1501,0.2001,-0.1501,-0.0999,0.0999,0.1501 SURF_ID='INERT' /
&OBST ID='Cube_xy_x-0.150_y-0.150'
      XB=-0.1501,0.2501,-0.1501,-0.0499,0.0499,0.1001 SURF_ID='INERT' /
&OBST ID='Cube_xy_x-0.150_y-0.150'
      XB=-0.1501,0.2501,-0.1501,-0.0999,-0.0001,0.0501 SURF_ID='INERT' /
&OBST ID='Cube_xy_x-0.200_y-0.150'
      XB=-0.2001,0.2501,-0.1501,-0.0499,-0.0501,0.0001 SURF_ID='INERT' /
&OBST ID='Cube_xy_x-0.200_y-0.150'
      XB=-0.2001,0.2501,-0.1501,-0.0999,-0.1001,-0.0499 SURF_ID='INERT' /
&OBST ID='Cube_xy_x-0.200_y-0.150'
      XB=-0.2001,0.2001,-0.1501,-0.0999,-0.2001,-0.0999 SURF_ID='INERT' /
&OBST ID='Cube_xy_x-0.050_y-0.150'
      XB=-0.0501,0.1501,-0.1501,-0.0999,-0.2501,-0.1999 SURF_ID='INERT' /
&OBST ID='Cube_xy_x-0.150_y-0.200'
      XB=-0.1501,0.1501,-0.2001,-0.1499,0.0999,0.1501 SURF_ID='INERT' /
&OBST ID='Cube_xy_x-0.150_y-0.200'
      XB=-0.1501,0.3001,-0.2001,-0.1499,0.0499,0.1001 SURF_ID='INERT' /
&OBST ID='Cube_xy_x-0.150_y-0.200'
      XB=-0.1501,0.2001,-0.2001,-0.1499,-0.0001,0.0501 SURF_ID='INERT' /
&OBST ID='Cube_xy_x-0.150_y-0.200'
      XB=-0.1501,0.1501,-0.2001,-0.1499,-0.0501,0.0001 SURF_ID='INERT' /
&OBST ID='Cube_xy_x-0.200_y-0.200'
      XB=-0.2001,0.1001,-0.2001,-0.1499,-0.1001,-0.0499 SURF_ID='INERT' /
&OBST ID='Cube_xy_x-0.200_y-0.200'
      XB=-0.2001,0.0001,-0.2001,-0.1499,-0.1501,-0.0999 SURF_ID='INERT' /
&OBST ID='Cube_xy_x-0.200_y-0.200'
      XB=-0.2001,-0.0499,-0.2001,-0.1499,-0.2001,-0.1499 SURF_ID='INERT' /
&OBST ID='Cube_xy_x-0.100_y-0.250'
      XB=-0.1001,0.0001,-0.2501,-0.1499,0.1499,0.2001 SURF_ID='INERT' /
&OBST ID='Cube_xy_x-0.100_y-0.250'
      XB=-0.1001,0.1001,-0.2501,-0.1999,0.0999,0.1501 SURF_ID='INERT' /
&OBST ID='Cube_xy_x-0.150_y-0.250'
      XB=-0.1501,0.0501,-0.2501,-0.1999,0.0499,0.1001 SURF_ID='INERT' /
&OBST ID='Cube_xy_x-0.150_y-0.250'
      XB=-0.1501,-0.0499,-0.2501,-0.1999,-0.0001,0.0501 SURF_ID='INERT' /
&OBST ID='Cube_xy_x-0.150_y-0.250'
      XB=-0.1501,-0.0999,-0.2501,-0.1999,-0.0501,0.0001 SURF_ID='INERT' /
XB Voxels: 64 | Resolution: 0.050 m
&OBST ID='Cube_xyz_x-0.600_y+0.200_z-0.000'
      XB=-0.6001,-0.5499,0.1999,0.2501,-0.0001,0.0501 SURF_ID='INERT' /
&OBST ID='Cube_xyz_x-0.650_y+0.200_z-0.050'
      XB=-0.6501,-0.5499,0.1999,0.2501,-0.0501,0.0001 SURF_ID='INERT' /
&OBST ID='Cube_xyz_x-0.750_y+0.200_z-0.100'
      XB=-0.7501,-0.5499,0.1999,0.2501,-0.1001,-0.0499 SURF_ID='INERT' /
&OBST ID='Cube_xyz_x-0.800_y+0.200_z-0.150'
      XB=-0.8001,-0.5999,0.1999,0.2501,-0.1501,-0.0999 SURF_ID='INERT' /
&OBST ID='Cube_xyz_x-0.650_y+0.150_z+0.150'
      XB=-0.6501,-0.4999,0.1499,0.2001,0.1499,0.2001 SURF_ID='INERT' /
&OBST ID='Cube_xyz_x-0.700_y+0.150_z+0.100'
      XB=-0.7001,-0.4999,0.1499,0.2001,0.0999,0.1501 SURF_ID='INERT' /
&OBST ID='Cube_xyz_x-0.800_y+0.150_z+0.050'
      XB=-0.8001,-0.4999,0.1499,0.2001,0.0499,0.1001 SURF_ID='INERT' /
&OBST ID='Cube_xyz_x-0.850_y+0.150_z-0.000'
      XB=-0.8501,-0.5499,0.1499,0.2001,-0.0001,0.0501 SURF_ID='INERT' /
&OBST ID='Cube_xyz_x-0.900_y+0.150_z-0.050'
      XB=-0.9001,-0.5499,0.1499,0.2001,-0.0501,0.0001 SURF_ID='INERT' /
&OBST ID='Cube_xyz_x-1.000_y+0.150_z-0.100'
      XB=-1.0001,-0.5499,0.1499,0.2001,-0.1001,-0.0499 SURF_ID='INERT' /
&OBST ID='Cube_xyz_x-0.850_y+0.150_z-0.150'
      XB=-0.8501,-0.5499,0.1499,0.2001,-0.1501,-0.0999 SURF_ID='INERT' /
&OBST ID='Cube_xyz_x-0.700_y+0.150_z-0.200'
      XB=-0.7001,-0.5999,0.1499,0.2501,-0.2001,-0.1499 SURF_ID='INERT' /
&OBST ID='Cube_xyz_x-0.850_y+0.100_z+0.200'
      XB=-0.8501,-0.6499,0.0999,0.1501,0.1999,0.2501 SURF_ID='INERT' /
&OBST ID='Cube_xyz_x-0.900_y+0.100_z+0.100'
      XB=-0.9001,-0.4999,0.0999,0.1501,0.0999,0.2001 SURF_ID='INERT' /
&OBST ID='Cube_xyz_x-0.950_y+0.100_z+0.050'
      XB=-0.9501,-0.4999,0.0999,0.1501,0.0499,0.1001 SURF_ID='INERT' /
&OBST ID='Cube_xyz_x-0.950_y+0.100_z-0.050'
      XB=-0.9501,-0.5499,0.0999,0.1501,-0.0501,0.0001 SURF_ID='INERT' /
&OBST ID='Cube_xyz_x-0.900_y+0.100_z-0.150'
      XB=-0.9001,-0.5499,0.0999,0.1501,-0.1501,-0.0999 SURF_ID='INERT' /
&OBST ID='Cube_xyz_x-0.900_y+0.050_z+0.150'
      XB=-0.9001,-0.5499,0.0499,0.1001,0.1499,0.2001 SURF_ID='INERT' /
&OBST ID='Cube_xyz_x-0.900_y+0.050_z+0.050'
      XB=-0.9001,-0.4999,0.0499,0.1001,0.0499,0.1001 SURF_ID='INERT' /
&OBST ID='Cube_xyz_x-0.950_y+0.050_z-0.000'
      XB=-0.9501,-0.4999,0.0499,0.1501,-0.0001,0.0501 SURF_ID='INERT' /
&OBST ID='Cube_xyz_x-0.950_y+0.050_z-0.100'
      XB=-0.9501,-0.5499,0.0499,0.1501,-0.1001,-0.0499 SURF_ID='INERT' /
&OBST ID='Cube_xyz_x-0.750_y+0.050_z-0.200'
      XB=-0.7501,-0.5499,0.0499,0.1501,-0.2001,-0.1499 SURF_ID='INERT' /
&OBST ID='Cube_xyz_x-0.600_y+0.050_z-0.250'
      XB=-0.6001,-0.5499,0.0499,0.1001,-0.2501,-0.1999 SURF_ID='INERT' /
&OBST ID='Cube_xyz_x-0.850_y-0.000_z+0.200'
      XB=-0.8501,-0.6999,-0.0001,0.1001,0.1999,0.2501 SURF_ID='INERT' /
&OBST ID='Cube_xyz_x-0.850_y-0.000_z+0.150'
      XB=-0.8501,-0.5499,-0.0001,0.0501,0.1499,0.2001 SURF_ID='INERT' /
&OBST ID='Cube_xyz_x-0.900_y-0.000_z+0.100'
      XB=-0.9001,-0.4499,-0.0001,0.1001,0.0999,0.1501 SURF_ID='INERT' /
&OBST ID='Cube_xyz_x-0.900_y-0.000_z-0.000'
      XB=-0.9001,-0.4999,-0.0001,0.0501,-0.0001,0.0501 SURF_ID='INERT' /
&OBST ID='Cube_xyz_x-0.950_y-0.000_z-0.050'
      XB=-0.9501,-0.4999,-0.0001,0.1001,-0.0501,0.0001 SURF_ID='INERT' /
&OBST ID='Cube_xyz_x-0.950_y-0.000_z-0.150'
      XB=-0.9501,-0.5499,-0.0001,0.1001,-0.1501,-0.0999 SURF_ID='INERT' /
&OBST ID='Cube_xyz_x-0.800_y-0.000_z-0.200'
      XB=-0.8001,-0.5499,-0.0001,0.0501,-0.2001,-0.1499 SURF_ID='INERT' /
&OBST ID='Cube_xyz_x-0.650_y-0.000_z-0.250'
      XB=-0.6501,-0.5499,-0.0001,0.0501,-0.2501,-0.1999 SURF_ID='INERT' /
&OBST ID='Cube_xyz_x-0.850_y-0.050_z+0.200'
      XB=-0.8501,-0.7499,-0.0501,0.0001,0.1999,0.2501 SURF_ID='INERT' /
&OBST ID='Cube_xyz_x-0.850_y-0.050_z+0.150'
      XB=-0.8501,-0.5999,-0.0501,0.0001,0.1499,0.2001 SURF_ID='INERT' /
&OBST ID='Cube_xyz_x-0.900_y-0.050_z+0.050'
      XB=-0.9001,-0.4499,-0.0501,0.0501,0.0499,0.1001 SURF_ID='INERT' /
&OBST ID='Cube_xyz_x-0.900_y-0.050_z-0.050'
      XB=-0.9001,-0.4999,-0.0501,0.0001,-0.0501,0.0001 SURF_ID='INERT' /
&OBST ID='Cube_xyz_x-0.950_y-0.050_z-0.100'
      XB=-0.9501,-0.4999,-0.0501,0.0501,-0.1001,-0.0499 SURF_ID='INERT' /
&OBST ID='Cube_xyz_x-0.850_y-0.050_z-0.200'
      XB=-0.8501,-0.5499,-0.0501,0.0001,-0.2001,-0.1499 SURF_ID='INERT' /
&OBST ID='Cube_xyz_x-0.850_y-0.100_z+0.200'
      XB=-0.8501,-0.7999,-0.1001,-0.0499,0.1999,0.2501 SURF_ID='INERT' /
&OBST ID='Cube_xyz_x-0.850_y-0.100_z+0.100'
      XB=-0.8501,-0.4499,-0.1001,0.0001,0.0999,0.1501 SURF_ID='INERT' /
&OBST ID='Cube_xyz_x-0.900_y-0.100_z-0.000'
      XB=-0.9001,-0.4499,-0.1001,0.0001,-0.0001,0.0501 SURF_ID='INERT' /
&OBST ID='Cube_xyz_x-0.900_y-0.100_z-0.100'
      XB=-0.9001,-0.4999,-0.1001,-0.0499,-0.1001,-0.0499 SURF_ID='INERT' /
&OBST ID='Cube_xyz_x-0.950_y-0.100_z-0.150'
      XB=-0.9501,-0.4999,-0.1001,0.0001,-0.1501,-0.0999 SURF_ID='INERT' /
&OBST ID='Cube_xyz_x-0.850_y-0.100_z-0.200'
      XB=-0.8501,-0.4999,-0.1001,-0.0499,-0.2001,-0.1499 SURF_ID='INERT' /
&OBST ID='Cube_xyz_x-0.700_y-0.100_z-0.250'
      XB=-0.7001,-0.5499,-0.1001,0.0001,-0.2501,-0.1999 SURF_ID='INERT' /
&OBST ID='Cube_xyz_x-0.850_y-0.150_z+0.150'
      XB=-0.8501,-0.6499,-0.1501,-0.0499,0.1499,0.2001 SURF_ID='INERT' /
&OBST ID='Cube_xyz_x-0.850_y-0.150_z+0.100'
      XB=-0.8501,-0.4999,-0.1501,-0.0999,0.0999,0.1501 SURF_ID='INERT' /
&OBST ID='Cube_xyz_x-0.850_y-0.150_z+0.050'
      XB=-0.8501,-0.4499,-0.1501,-0.0499,0.0499,0.1001 SURF_ID='INERT' /
&OBST ID='Cube_xyz_x-0.850_y-0.150_z-0.000'
      XB=-0.8501,-0.4499,-0.1501,-0.0999,-0.0001,0.0501 SURF_ID='INERT' /
&OBST ID='Cube_xyz_x-0.900_y-0.150_z-0.050'
      XB=-0.9001,-0.4499,-0.1501,-0.0499,-0.0501,0.0001 SURF_ID='INERT' /
&OBST ID='Cube_xyz_x-0.900_y-0.150_z-0.100'
      XB=-0.9001,-0.4499,-0.1501,-0.0999,-0.1001,-0.0499 SURF_ID='INERT' /
&OBST ID='Cube_xyz_x-0.900_y-0.150_z-0.200'
      XB=-0.9001,-0.4999,-0.1501,-0.0999,-0.2001,-0.0999 SURF_ID='INERT' /
&OBST ID='Cube_xyz_x-0.750_y-0.150_z-0.250'
      XB=-0.7501,-0.5499,-0.1501,-0.0999,-0.2501,-0.1999 SURF_ID='INERT' /
&OBST ID='Cube_xyz_x-0.850_y-0.200_z+0.100'
      XB=-0.8501,-0.5499,-0.2001,-0.1499,0.0999,0.1501 SURF_ID='INERT' /
&OBST ID='Cube_xyz_x-0.850_y-0.200_z+0.050'
      XB=-0.8501,-0.3999,-0.2001,-0.1499,0.0499,0.1001 SURF_ID='INERT' /
&OBST ID='Cube_xyz_x-0.850_y-0.200_z-0.000'
      XB=-0.8501,-0.4999,-0.2001,-0.1499,-0.0001,0.0501 SURF_ID='INERT' /
&OBST ID='Cube_xyz_x-0.850_y-0.200_z-0.050'
      XB=-0.8501,-0.5499,-0.2001,-0.1499,-0.0501,0.0001 SURF_ID='INERT' /
&OBST ID='Cube_xyz_x-0.900_y-0.200_z-0.100'
      XB=-0.9001,-0.5999,-0.2001,-0.1499,-0.1001,-0.0499 SURF_ID='INERT' /
&OBST ID='Cube_xyz_x-0.900_y-0.200_z-0.150'
      XB=-0.9001,-0.6999,-0.2001,-0.1499,-0.1501,-0.0999 SURF_ID='INERT' /
&OBST ID='Cube_xyz_x-0.900_y-0.200_z-0.200'
      XB=-0.9001,-0.7499,-0.2001,-0.1499,-0.2001,-0.1499 SURF_ID='INERT' /
&OBST ID='Cube_xyz_x-0.800_y-0.250_z+0.150'
      XB=-0.8001,-0.6999,-0.2501,-0.1499,0.1499,0.2001 SURF_ID='INERT' /
&OBST ID='Cube_xyz_x-0.800_y-0.250_z+0.100'
      XB=-0.8001,-0.5999,-0.2501,-0.1999,0.0999,0.1501 SURF_ID='INERT' /
&OBST ID='Cube_xyz_x-0.850_y-0.250_z+0.050'
      XB=-0.8501,-0.6499,-0.2501,-0.1999,0.0499,0.1001 SURF_ID='INERT' /
&OBST ID='Cube_xyz_x-0.850_y-0.250_z-0.000'
      XB=-0.8501,-0.7499,-0.2501,-0.1999,-0.0001,0.0501 SURF_ID='INERT' /
&OBST ID='Cube_xyz_x-0.850_y-0.250_z-0.050'
      XB=-0.8501,-0.7999,-0.2501,-0.1999,-0.0501,0.0001 SURF_ID='INERT' /
XB Voxels: 64 | Resolution: 0.050 m
&OBST ID='Cube_xz_x+0.100_z-0.000'
      XB=0.0999,0.1501,-0.5001,-0.4499,-0.0001,0.0501 SURF_ID='INERT' /
&OBST ID='Cube_xz_x+0.050_z-0.050'
      XB=0.0499,0.1501,-0.5001,-0.4499,-0.0501,0.0001 SURF_ID='INERT' /
&OBST ID='Cube_xz_x-0.050_z-0.100'
      XB=-0.0501,0.1501,-0.5001,-0.4499,-0.1001,-0.0499 SURF_ID='INERT' /
&OBST ID='Cube_xz_x-0.100_z-0.150'
      XB=-0.1001,0.1001,-0.5001,-0.4499,-0.1501,-0.0999 SURF_ID='INERT' /
&OBST ID='Cube_xz_x+0.050_z+0.150'
      XB=0.0499,0.2001,-0.5501,-0.4999,0.1499,0.2001 SURF_ID='INERT' /
&OBST ID='Cube_xz_x-0.000_z+0.100'
      XB=-0.0001,0.2001,-0.5501,-0.4999,0.0999,0.1501 SURF_ID='INERT' /
&OBST ID='Cube_xz_x-0.100_z+0.050'
      XB=-0.1001,0.2001,-0.5501,-0.4999,0.0499,0.1001 SURF_ID='INERT' /
&OBST ID='Cube_xz_x-0.150_z-0.000'
      XB=-0.1501,0.1501,-0.5501,-0.4999,-0.0001,0.0501 SURF_ID='INERT' /
&OBST ID='Cube_xz_x-0.200_z-0.050'
      XB=-0.2001,0.1501,-0.5501,-0.4999,-0.0501,0.0001 SURF_ID='INERT' /
&OBST ID='Cube_xz_x-0.300_z-0.100'
      XB=-0.3001,0.1501,-0.5501,-0.4999,-0.1001,-0.0499 SURF_ID='INERT' /
&OBST ID='Cube_xz_x-0.150_z-0.150'
      XB=-0.1501,0.1501,-0.5501,-0.4999,-0.1501,-0.0999 SURF_ID='INERT' /
&OBST ID='Cube_xz_x-0.000_z-0.200'
      XB=-0.0001,0.1001,-0.5501,-0.4499,-0.2001,-0.1499 SURF_ID='INERT' /
&OBST ID='Cube_xz_x-0.150_z+0.200'
      XB=-0.1501,0.0501,-0.6001,-0.5499,0.1999,0.2501 SURF_ID='INERT' /
&OBST ID='Cube_xz_x-0.200_z+0.100'
      XB=-0.2001,0.2001,-0.6001,-0.5499,0.0999,0.2001 SURF_ID='INERT' /
&OBST ID='Cube_xz_x-0.250_z+0.050'
      XB=-0.2501,0.2001,-0.6001,-0.5499,0.0499,0.1001 SURF_ID='INERT' /
&OBST ID='Cube_xz_x-0.250_z-0.050'
      XB=-0.2501,0.1501,-0.6001,-0.5499,-0.0501,0.0001 SURF_ID='INERT' /
&OBST ID='Cube_xz_x-0.200_z-0.150'
      XB=-0.2001,0.1501,-0.6001,-0.5499,-0.1501,-0.0999 SURF_ID='INERT' /
&OBST ID='Cube_xz_x-0.200_z+0.150'
      XB=-0.2001,0.1501,-0.6501,-0.5999,0.1499,0.2001 SURF_ID='INERT' /
&OBST ID='Cube_xz_x-0.200_z+0.050'
      XB=-0.2001,0.2001,-0.6501,-0.5999,0.0499,0.1001 SURF_ID='INERT' /
&OBST ID='Cube_xz_x-0.250_z-0.000'
      XB=-0.2501,0.2001,-0.6501,-0.5499,-0.0001,0.0501 SURF_ID='INERT' /
&OBST ID='Cube_xz_x-0.250_z-0.100'
      XB=-0.2501,0.1501,-0.6501,-0.5499,-0.1001,-0.0499 SURF_ID='INERT' /
&OBST ID='Cube_xz_x-0.050_z-0.200'
      XB=-0.0501,0.1501,-0.6501,-0.5499,-0.2001,-0.1499 SURF_ID='INERT' /
&OBST ID='Cube_xz_x+0.100_z-0.250'
      XB=0.0999,0.1501,-0.6501,-0.5999,-0.2501,-0.1999 SURF_ID='INERT' /
&OBST ID='Cube_xz_x-0.150_z+0.200'
      XB=-0.1501,0.0001,-0.7001,-0.5999,0.1999,0.2501 SURF_ID='INERT' /
&OBST ID='Cube_xz_x-0.150_z+0.150'
      XB=-0.1501,0.1501,-0.7001,-0.6499,0.1499,0.2001 SURF_ID='INERT' /
&OBST ID='Cube_xz_x-0.200_z+0.100'
      XB=-0.2001,0.2501,-0.7001,-0.5999,0.0999,0.1501 SURF_ID='INERT' /
&OBST ID='Cube_xz_x-0.200_z-0.000'
      XB=-0.2001,0.2001,-0.7001,-0.6499,-0.0001,0.0501 SURF_ID='INERT' /
&OBST ID='Cube_xz_x-0.250_z-0.050'
      XB=-0.2501,0.2001,-0.7001,-0.5999,-0.0501,0.0001 SURF_ID='INERT' /
&OBST ID='Cube_xz_x-0.250_z-0.150'
      XB=-0.2501,0.1501,-0.7001,-0.5999,-0.1501,-0.0999 SURF_ID='INERT' /
&OBST ID='Cube_xz_x-0.100_z-0.200'
      XB=-0.1001,0.1501,-0.7001,-0.6499,-0.2001,-0.1499 SURF_ID='INERT' /
&OBST ID='Cube_xz_x+0.050_z-0.250'
      XB=0.0499,0.1501,-0.7001,-0.6499,-0.2501,-0.1999 SURF_ID='INERT' /
&OBST ID='Cube_xz_x-0.150_z+0.200'
      XB=-0.1501,-0.0499,-0.7501,-0.6999,0.1999,0.2501 SURF_ID='INERT' /
&OBST ID='Cube_xz_x-0.150_z+0.150'
      XB=-0.1501,0.1001,-0.7501,-0.6999,0.1499,0.2001 SURF_ID='INERT' /
&OBST ID='Cube_xz_x-0.200_z+0.050'
      XB=-0.2001,0.2501,-0.7501,-0.6499,0.0499,0.1001 SURF_ID='INERT' /
&OBST ID='Cube_xz_x-0.200_z-0.050'
      XB=-0.2001,0.2001,-0.7501,-0.6999,-0.0501,0.0001 SURF_ID='INERT' /
&OBST ID='Cube_xz_x-0.250_z-0.100'
      XB=-0.2501,0.2001,-0.7501,-0.6499,-0.1001,-0.0499 SURF_ID='INERT' /
&OBST ID='Cube_xz_x-0.150_z-0.200'
      XB=-0.1501,0.1501,-0.7501,-0.6999,-0.2001,-0.1499 SURF_ID='INERT' /
&OBST ID='Cube_xz_x-0.150_z+0.200'
      XB=-0.1501,-0.0999,-0.8001,-0.7499,0.1999,0.2501 SURF_ID='INERT' /
&OBST ID='Cube_xz_x-0.150_z+0.100'
      XB=-0.1501,0.2501,-0.8001,-0.6999,0.0999,0.1501 SURF_ID='INERT' /
&OBST ID='Cube_xz_x-0.200_z-0.000'
      XB=-0.2001,0.2501,-0.8001,-0.6999,-0.0001,0.0501 SURF_ID='INERT' /
&OBST ID='Cube_xz_x-0.200_z-0.100'
      XB=-0.2001,0.2001,-0.8001,-0.7499,-0.1001,-0.0499 SURF_ID='INERT' /
&OBST ID='Cube_xz_x-0.250_z-0.150'
      XB=-0.2501,0.2001,-0.8001,-0.6999,-0.1501,-0.0999 SURF_ID='INERT' /
&OBST ID='Cube_xz_x-0.150_z-0.200'
      XB=-0.1501,0.2001,-0.8001,-0.7499,-0.2001,-0.1499 SURF_ID='INERT' /
&OBST ID='Cube_xz_x-0.000_z-0.250'
      XB=-0.0001,0.1501,-0.8001,-0.6999,-0.2501,-0.1999 SURF_ID='INERT' /
&OBST ID='Cube_xz_x-0.150_z+0.150'
      XB=-0.1501,0.0501,-0.8501,-0.7499,0.1499,0.2001 SURF_ID='INERT' /
&OBST ID='Cube_xz_x-0.150_z+0.100'
      XB=-0.1501,0.2001,-0.8501,-0.7999,0.0999,0.1501 SURF_ID='INERT' /
&OBST ID='Cube_xz_x-0.150_z+0.050'
      XB=-0.1501,0.2501,-0.8501,-0.7499,0.0499,0.1001 SURF_ID='INERT' /
&OBST ID='Cube_xz_x-0.150_z-0.000'
      XB=-0.1501,0.2501,-0.8501,-0.7999,-0.0001,0.0501 SURF_ID='INERT' /
&OBST ID='Cube_xz_x-0.200_z-0.050'
      XB=-0.2001,0.2501,-0.8501,-0.7499,-0.0501,0.0001 SURF_ID='INERT' /
&OBST ID='Cube_xz_x-0.200_z-0.100'
      XB=-0.2001,0.2501,-0.8501,-0.7999,-0.1001,-0.0499 SURF_ID='INERT' /
&OBST ID='Cube_xz_x-0.200_z-0.200'
      XB=-0.2001,0.2001,-0.8501,-0.7999,-0.2001,-0.0999 SURF_ID='INERT' /
&OBST ID='Cube_xz_x-0.050_z-0.250'
      XB=-0.0501,0.1501,-0.8501,-0.7999,-0.2501,-0.1999 SURF_ID='INERT' /
&OBST ID='Cube_xz_x-0.150_z+0.100'
      XB=-0.1501,0.1501,-0.9001,-0.8499,0.0999,0.1501 SURF_ID='INERT' /
&OBST ID='Cube_xz_x-0.150_z+0.050'
      XB=-0.1501,0.3001,-0.9001,-0.8499,0.0499,0.1001 SURF_ID='INERT' /
&OBST ID='Cube_xz_x-0.150_z-0.000'
      XB=-0.1501,0.2001,-0.9001,-0.8499,-0.0001,0.0501 SURF_ID='INERT' /
&OBST ID='Cube_xz_x-0.150_z-0.050'
      XB=-0.1501,0.1501,-0.9001,-0.8499,-0.0501,0.0001 SURF_ID='INERT' /
&OBST ID='Cube_xz_x-0.200_z-0.100'
      XB=-0.2001,0.1001,-0.9001,-0.8499,-0.1001,-0.0499 SURF_ID='INERT' /
&OBST ID='Cube_xz_x-0.200_z-0.150'
      XB=-0.2001,0.0001,-0.9001,-0.8499,-0.1501,-0.0999 SURF_ID='INERT' /
&OBST ID='Cube_xz_x-0.200_z-0.200'
      XB=-0.2001,-0.0499,-0.9001,-0.8499,-0.2001,-0.1499 SURF_ID='INERT' /
&OBST ID='Cube_xz_x-0.100_z+0.150'
      XB=-0.1001,0.0001,-0.9501,-0.8499,0.1499,0.2001 SURF_ID='INERT' /
&OBST ID='Cube_xz_x-0.100_z+0.100'
      XB=-0.1001,0.1001,-0.9501,-0.8999,0.0999,0.1501 SURF_ID='INERT' /
&OBST ID='Cube_xz_x-0.150_z+0.050'
      XB=-0.1501,0.0501,-0.9501,-0.8999,0.0499,0.1001 SURF_ID='INERT' /
&OBST ID='Cube_xz_x-0.150_z-0.000'
      XB=-0.1501,-0.0499,-0.9501,-0.8999,-0.0001,0.0501 SURF_ID='INERT' /
&OBST ID='Cube_xz_x-0.150_z-0.050'
      XB=-0.1501,-0.0999,-0.9501,-0.8999,-0.0501,0.0001 SURF_ID='INERT' /
XB Voxels: 64 | Resolution: 0.050 m
&OBST ID='Cube_y_y-0.500' XB=0.7999,0.8501,-0.5001,-0.4499,-0.0001,0.0501
      SURF_ID='INERT' /
&OBST ID='Cube_y_y-0.500' XB=0.7499,0.8501,-0.5001,-0.4499,-0.0501,0.0001
      SURF_ID='INERT' /
&OBST ID='Cube_y_y-0.500' XB=0.6499,0.8501,-0.5001,-0.4499,-0.1001,-0.0499
      SURF_ID='INERT' /
&OBST ID='Cube_y_y-0.500' XB=0.5999,0.8001,-0.5001,-0.4499,-0.1501,-0.0999
      SURF_ID='INERT' /
&OBST ID='Cube_y_y-0.550' XB=0.7499,0.9001,-0.5501,-0.4999,0.1499,0.2001
      SURF_ID='INERT' /
&OBST ID='Cube_y_y-0.550' XB=0.6999,0.9001,-0.5501,-0.4999,0.0999,0.1501
      SURF_ID='INERT' /
&OBST ID='Cube_y_y-0.550' XB=0.5999,0.9001,-0.5501,-0.4999,0.0499,0.1001
      SURF_ID='INERT' /
&OBST ID='Cube_y_y-0.550' XB=0.5499,0.8501,-0.5501,-0.4999,-0.0001,0.0501
      SURF_ID='INERT' /
&OBST ID='Cube_y_y-0.550' XB=0.4999,0.8501,-0.5501,-0.4999,-0.0501,0.0001
      SURF_ID='INERT' /
&OBST ID='Cube_y_y-0.550' XB=0.3999,0.8501,-0.5501,-0.4999,-0.1001,-0.0499
      SURF_ID='INERT' /
&OBST ID='Cube_y_y-0.550' XB=0.5499,0.8501,-0.5501,-0.4999,-0.1501,-0.0999
      SURF_ID='INERT' /
&OBST ID='Cube_y_y-0.550' XB=0.6999,0.8001,-0.5501,-0.4499,-0.2001,-0.1499
      SURF_ID='INERT' /
&OBST ID='Cube_y_y-0.600' XB=0.5499,0.7501,-0.6001,-0.5499,0.1999,0.2501
      SURF_ID='INERT' /
&OBST ID='Cube_y_y-0.600' XB=0.4999,0.9001,-0.6001,-0.5499,0.0999,0.2001
      SURF_ID='INERT' /
&OBST ID='Cube_y_y-0.600' XB=0.4499,0.9001,-0.6001,-0.5499,0.0499,0.1001
      SURF_ID='INERT' /
&OBST ID='Cube_y_y-0.600' XB=0.4499,0.8501,-0.6001,-0.5499,-0.0501,0.0001
      SURF_ID='INERT' /