! Generated by BlenderFDS 6.0.0 on Blender 3.2.0 Beta
! Date: Sun, 22 May 2022, 15:18:54
! File: ···ub/blenderfds.verification/tests/op_copy_export/./bl/copy_scene.blend

--- Case from Blender Scene: <scene> | View Layer: <View Layer>

&HEAD CHID='scene' TITLE='This is HEAD FYI' /
&TIME T_BEGIN=10.0 T_END=120.0 T1='Test1' T2=T /
&MISC FYI='This is MISC FYI' THICKEN_OBSTRUCTIONS=T ORIGIN_LON=9.168889999
      ORIGIN_LAT=44.326759338 T3='Test3' /
&PRES FYI='This is PRES FYI' VELOCITY_TOLERANCE=0.000010
      MAX_PRESSURE_ITERATIONS=20 T6='Test6' /
&RADI FYI='This is RADI FYI' NUMBER_RADIATION_ANGLES=110 TIME_STEP_INCREMENT=4
      ANGLE_INCREMENT=6 RADIATION_ITERATIONS=2 T5='Test5' /
&REAC FUEL='PROPANE' FORMULA='CH4' CO_YIELD=0.150 SOOT_YIELD=0.100
      HEAT_OF_COMBUSTION=20000.0 IDEAL=T RADIATIVE_FRACTION=0.40 T4='Test4' /
&DUMP FYI='This is DUMP FYI' RENDER_FILE='scene.ge1' STATUS_FILES=T NFRAMES=55
      DT_RESTART=900.0 /

--- Free text from Blender Text: <Text>

Insert here other non-geometrical namelists
&BNDF QUANTITY='WALL TEMPERATURE' /
&BNDF QUANTITY='BURNING RATE' /

&TAIL /
