!!! Generated by BlenderFDS 6.0.0 on Blender 3.0.0
!!! Date: <lun, 10 gen 2022, 16:27:00>
!!! File: <...tests/blender_geometry_to_fds/bl/xb_xyz_pb_geometry.blend>
! --- Case from Blender Scene <xb_edges_array>
&HEAD CHID='xb_edges_array' TITLE='Test edges w solidified plane' /
&TIME T_END=1.0 /
&REAC FUEL='METHANE' FYI='Otherwise error with smoke detectors' /
 
! --- Geometric namelists from Blender Collection <Scene Collection>
! MESH Cell Qty: 8000
! Cell Size: 0.100m · 0.100m · 0.100m | Aspect: 1.0 | Poisson: Yes
&MESH ID='Domain' IJK=20,20,20
      XB=-1.000000,1.000000,-1.000000,1.000000,-1.000000,1.000000 /
! XB Edges: 6
&DEVC QUANTITY='PATH OBSCURATION' SETPOINT=33.000 ID='Plane_edges_0'
      XB=-0.135320,0.629591,0.768244,-0.797774,0.457937,0.007937 /
&DEVC QUANTITY='PATH OBSCURATION' SETPOINT=33.000 ID='Plane_edges_1'
      XB=-0.070097,0.694814,0.749550,-0.816467,0.633859,0.183859 /
&DEVC QUANTITY='PATH OBSCURATION' SETPOINT=33.000 ID='Plane_edges_2'
      XB=-0.004874,0.760037,0.730857,-0.835161,0.809780,0.359780 /
&DEVC QUANTITY='PATH OBSCURATION' SETPOINT=33.000 ID='Plane_edges_3'
      XB=0.545361,-0.135320,0.660759,0.768244,-0.007937,0.457937 /
&DEVC QUANTITY='PATH OBSCURATION' SETPOINT=33.000 ID='Plane_edges_4'
      XB=0.610584,-0.070097,0.642065,0.749550,0.167984,0.633859 /
&DEVC QUANTITY='PATH OBSCURATION' SETPOINT=33.000 ID='Plane_edges_5'
      XB=0.675807,-0.004874,0.623371,0.730857,0.343906,0.809780 /

&TAIL /
 