! Generated by BlenderFDS 5.0.0 on Blender 2.83.3
! Date: <Sat, 12 Sep 2020, 10:08:25>
! File: <not saved>
! --- Case from Blender Scene <bbox_plane_solidify>
&HEAD CHID='bbox_plane_solidify' TITLE='Test bbox w solidified plane' /
&TIME T_END=1.0 /
 
! --- Geometric namelists from Blender Collection <Master Collection>
! MESH Cell Size: 0.100 m, 0.100 m, 0.100 m | Qty: 8000 | Aspect: 1.0 | Poisson: Yes
&MESH ID='Domain' IJK=20,20,20
      XB=-1.000000,1.000000,-1.000000,1.000000,-1.000000,1.000000 /
&OBST ID='Plane_bbox' SURF_ID='INERT'
      XB=-0.221799,2.221799,-0.242462,2.242462,-1.691190,-0.308810 /

&TAIL /
 
