! Generated by BlenderFDS 5.0.0 on Blender 2.83.3
! Date: <Sat, 12 Sep 2020, 10:08:25>
! File: <not saved>
! --- Case from Blender Scene <edges_array>
&HEAD CHID='edges_array' TITLE='Test edges w solidified plane' /
&TIME T_END=1.0 /
&REAC FUEL='METHANE' FYI='Otherwise error with smoke detectors' /
 
! --- Geometric namelists from Blender Collection <Master Collection>
! MESH Cell Size: 0.100 m, 0.100 m, 0.100 m | Qty: 8000 | Aspect: 1.0 | Poisson: Yes
&MESH ID='Domain' IJK=20,20,20
      XB=-1.000000,1.000000,-1.000000,1.000000,-1.000000,1.000000 /
&DEVC ID='Plane_edges_0' QUANTITY='PATH OBSCURATION' SETPOINT=33.000
      XB=-0.135320,0.629591,-0.797774,0.768244,0.007937,0.457937 /
&DEVC ID='Plane_edges_1' QUANTITY='PATH OBSCURATION' SETPOINT=33.000
      XB=-0.070097,0.694814,-0.816467,0.749550,0.183859,0.633859 /
&DEVC ID='Plane_edges_2' QUANTITY='PATH OBSCURATION' SETPOINT=33.000
      XB=-0.004874,0.760037,-0.835161,0.730857,0.359780,0.809780 /
&DEVC ID='Plane_edges_3' QUANTITY='PATH OBSCURATION' SETPOINT=33.000
      XB=-0.135320,0.545361,0.660759,0.768244,-0.007937,0.457937 /
&DEVC ID='Plane_edges_4' QUANTITY='PATH OBSCURATION' SETPOINT=33.000
      XB=-0.070097,0.610584,0.642065,0.749550,0.167984,0.633859 /
&DEVC ID='Plane_edges_5' QUANTITY='PATH OBSCURATION' SETPOINT=33.000
      XB=-0.004874,0.675807,0.623371,0.730857,0.343906,0.809780 /

&TAIL /
 
