! Generated by BlenderFDS 5.0.0 on Blender 2.83.3
! Date: <Sat, 12 Sep 2020, 10:08:25>
! File: <not saved>
! --- Case from Blender Scene <faces_plane_solidify>
&HEAD CHID='faces_plane_solidify' TITLE='Test faces w solidified plane' /
&TIME T_END=1.0 /
 
! --- Geometric namelists from Blender Collection <Master Collection>
! MESH Cell Size: 0.100 m, 0.100 m, 0.100 m | Qty: 8000 | Aspect: 1.0 | Poisson: Yes
&MESH ID='Domain' IJK=20,20,20
      XB=-1.000000,1.000000,-1.000000,1.000000,-1.000000,1.000000 /
&DEVC ID='Plane_faces_0' QUANTITY='MASS FLOW' INITIAL_STATE=T
      XB=-0.221799,0.716069,-0.242462,1.373128,-0.767063,-0.767063 /
&DEVC ID='Plane_faces_1' QUANTITY='MASS FLOW' INITIAL_STATE=T
      XB=-0.221799,1.456888,1.783009,1.783009,-1.241190,-0.308810 /
&DEVC ID='Plane_faces_2' QUANTITY='MASS FLOW' INITIAL_STATE=T
      XB=-0.221799,2.048841,-0.192890,2.242462,-1.233253,-1.233253 /
&DEVC ID='Plane_faces_3' QUANTITY='MASS FLOW' INITIAL_STATE=T
      XB=-0.048841,2.221799,-0.242462,2.192890,-0.766747,-0.766747 /
&DEVC ID='Plane_faces_4' QUANTITY='MASS FLOW' INITIAL_STATE=T
      XB=0.543112,2.221799,0.216991,0.216991,-1.691190,-0.758810 /
&DEVC ID='Plane_faces_5' QUANTITY='MASS FLOW' INITIAL_STATE=T
      XB=1.283931,2.221799,0.626872,2.242462,-1.232937,-1.232937 /

&TAIL /
 
