! Generated by BlenderFDS 5.0.0 on Blender 2.83.3
! Date: <Sat, 12 Sep 2020, 10:08:25>
! File: <not saved>
! --- Case from Blender Scene <geom_complex_bingeom>
&HEAD CHID='geom_complex_bingeom' TITLE='Test geom w modifiers' /
&TIME T_END=1.0 /

! --- Boundary conditions from related Blender Materials
&SURF ID='Material_blue' RGB=0,16,204 /
&SURF ID='Material_red' RGB=255,0,0 /
 
! --- Geometric namelists from Blender Collection <Master Collection>
! MESH Cell Size: 0.100 m, 0.100 m, 0.100 m | Qty: 8000 | Aspect: 1.0 | Poisson: Yes
&MESH ID='Domain' IJK=20,20,20
      XB=-1.000000,1.000000,-1.000000,1.000000,-1.000000,1.000000 /
&MOVE ID='test_move_id'
      T34=0.606218,0.350000,-0.000000,-0.303109,0.525000,-0.350000,-0.175000,
        0.303109,0.606218,-0.200000,0.000000,-0.300000 /
! GEOM Vertices: 18897 | Faces: 37782
&GEOM ID='Suzanne' SURF_ID='INERT','Material_red','Material_blue'
      MOVE_ID='test_move_id' BINARY_FILE='Suzanne.bingeom' /

&TAIL /
 
