! Generated by BlenderFDS 5.0.0 on Blender 2.83.3
! Date: <Sat, 12 Sep 2020, 10:08:25>
! File: <not saved>
! --- Case from Blender Scene <geom_simple_modifiers>
&HEAD CHID='geom_simple_modifiers' TITLE='Test simple geom' /
&TIME T_END=1.0 /

! --- Boundary conditions from related Blender Materials
&SURF ID='Material_blue' RGB=0,16,204 /
&SURF ID='Material_red' RGB=255,0,0 /
 
! --- Geometric namelists from Blender Collection <Master Collection>
! MESH Cell Size: 0.100 m, 0.100 m, 0.100 m | Qty: 8000 | Aspect: 1.0 | Poisson: Yes
&MESH ID='Domain' IJK=20,20,20
      XB=-1.000000,1.000000,-1.000000,1.000000,-1.000000,1.000000 /
! GEOM Vertices: 24 | Faces: 24
&GEOM ID='Tet.001' SURF_ID='INERT','Material_red','Material_blue'
      VERTS=-0.470591,-0.982963,-0.500000,-1.212372,-0.146447,-0.500000,
        -0.246447,0.112372,-0.500000,-0.600000,-0.500000,0.500000,0.688521,
        -0.672380,-0.500000,-0.053261,0.164136,-0.500000,0.912664,0.422955,
        -0.500000,0.559111,-0.189417,0.500000
      FACES=4,2,1,1,2,3,1,1,1,3,4,3,3,2,4,2,8,6,5,1,6,7,5,1,5,7,8,3,7,6,8,2 /

&TAIL /
 
