! Generated by BlenderFDS 5.0.0 on Blender 2.83.3
! Date: <Sat, 12 Sep 2020, 10:08:26>
! File: <not saved>
! --- Case from Blender Scene <pixels_flat_modifiers>
&HEAD CHID='pixels_flat_modifiers' TITLE='Test pixels of flat w modifiers' /
&TIME T_END=1.0 /

! --- Boundary conditions from related Blender Materials
&SURF ID='Material_red' RGB=255,0,0 /
 
! --- Geometric namelists from Blender Collection <Master Collection>
&OBST ID='Base' SURF_ID='INERT'
      XB=-1.000000,1.000000,-1.000000,1.000000,-1.000000,-0.500000 /
&VENT ID='Circle_pixels_0' SURF_ID='Material_red'
      XB=0.899990,1.000010,0.199990,0.400010,-0.490000,-0.490000 /
&VENT ID='Circle_pixels_1' SURF_ID='Material_red'
      XB=0.799990,0.900010,-0.100010,0.500010,-0.490000,-0.490000 /
&VENT ID='Circle_pixels_10' SURF_ID='Material_red'
      XB=-0.300010,-0.099990,-0.800010,0.000010,-0.490000,-0.490000 /
&VENT ID='Circle_pixels_11' SURF_ID='Material_red'
      XB=-0.600010,-0.299990,-0.900010,0.100010,-0.490000,-0.490000 /
&VENT ID='Circle_pixels_12' SURF_ID='Material_red'
      XB=-0.800010,-0.599990,-0.800010,0.000010,-0.490000,-0.490000 /
&VENT ID='Circle_pixels_13' SURF_ID='Material_red'
      XB=-0.900010,-0.799990,-0.600010,-0.099990,-0.490000,-0.490000 /
&VENT ID='Circle_pixels_2' SURF_ID='Material_red'
      XB=0.699990,0.800010,-0.200010,0.600010,-0.490000,-0.490000 /
&VENT ID='Circle_pixels_3' SURF_ID='Material_red'
      XB=0.599990,0.700010,-0.200010,0.700010,-0.490000,-0.490000 /
&VENT ID='Circle_pixels_4' SURF_ID='Material_red'
      XB=0.499990,0.600010,-0.300010,0.700010,-0.490000,-0.490000 /
&VENT ID='Circle_pixels_5' SURF_ID='Material_red'
      XB=0.299990,0.500010,-0.200010,0.700010,-0.490000,-0.490000 /
&VENT ID='Circle_pixels_6' SURF_ID='Material_red'
      XB=0.199990,0.300010,-0.200010,0.600010,-0.490000,-0.490000 /
&VENT ID='Circle_pixels_7' SURF_ID='Material_red'
      XB=0.099990,0.200010,-0.100010,0.500010,-0.490000,-0.490000 /
&VENT ID='Circle_pixels_8' SURF_ID='Material_red'
      XB=-0.000010,0.100010,-0.000010,0.500010,-0.490000,-0.490000 /
&VENT ID='Circle_pixels_9' SURF_ID='Material_red'
      XB=-0.100010,0.000010,-0.700010,-0.199990,-0.490000,-0.490000 /
! MESH Cell Size: 0.100 m, 0.100 m, 0.100 m | Qty: 8000 | Aspect: 1.0 | Poisson: Yes
&MESH ID='Domain' IJK=20,20,20
      XB=-1.000000,1.000000,-1.000000,1.000000,-1.000000,1.000000 /

&TAIL /
 
