! Generated by BlenderFDS 5.0.0 on Blender 2.83.3
! Date: <Sat, 12 Sep 2020, 10:44:37>
! File: <not saved>
! --- Case from Blender Scene <planes_modifiers>
&HEAD CHID='planes_modifiers' TITLE='Test planes w modifiers' /
&TIME T_END=1.0 /
 
! --- Geometric namelists from Blender Collection <Scene Collection>
! MESH Cell Size: 0.100 m, 0.100 m, 0.100 m | Qty: 8000 | Aspect: 1.0 | Poisson: Yes
&MESH ID='Domain' IJK=20,20,20
      XB=-1.000000,1.000000,-1.000000,1.000000,-1.000000,1.000000 /
&VENT ID='Domain bc_0' SURF_ID='OPEN' PBX=-0.999848 /
&VENT ID='Domain bc_1' SURF_ID='OPEN' PBX=0.999848 /
&VENT ID='Domain bc_2' SURF_ID='OPEN' PBY=-0.999848 /
&VENT ID='Domain bc_3' SURF_ID='OPEN' PBY=0.999848 /
&VENT ID='Domain bc_4' SURF_ID='OPEN' PBZ=-1.000000 /
&VENT ID='Domain bc_5' SURF_ID='OPEN' PBZ=1.000000 /
&SLCF ID='SLCFs_x+0.000' QUANTITY='TEMPERATURE' VECTOR=T PBX=0.000000 /
&SLCF ID='SLCFs_x+0.500' QUANTITY='TEMPERATURE' VECTOR=T PBX=0.500000 /
&SLCF ID='SLCFs_y+0.000' QUANTITY='TEMPERATURE' VECTOR=T PBY=0.000000 /
&SLCF ID='SLCFs_y+0.500' QUANTITY='TEMPERATURE' VECTOR=T PBY=0.500000 /
&SLCF ID='SLCFs_z+0.000' QUANTITY='TEMPERATURE' VECTOR=T PBZ=0.000000 /
&SLCF ID='SLCFs_z+0.500' QUANTITY='TEMPERATURE' VECTOR=T PBZ=0.500000 /

&TAIL /
 
