! Generated by BlenderFDS 5.0.0 on Blender 2.83.3
! Date: <Sat, 12 Sep 2020, 10:08:26>
! File: <not saved>
! --- Case from Blender Scene <vertices_modifiers>
&HEAD CHID='vertices_modifiers' TITLE='Test voxels of solid w modifiers' /
&TIME T_END=1.0 /
 
! --- Geometric namelists from Blender Collection <Master Collection>
&DEVC ID='Cube_x+0.345_y+0.573_z-0.470' QUANTITY='TEMPERATURE'
      XYZ=0.345,0.573,-0.470 /
&DEVC ID='Cube_x+0.420_y+0.693_z-0.471' QUANTITY='TEMPERATURE'
      XYZ=0.420,0.693,-0.471 /
&DEVC ID='Cube_x+0.530_y-0.378_z-0.720' QUANTITY='TEMPERATURE'
      XYZ=0.530,-0.378,-0.720 /
&DEVC ID='Cube_x+0.605_y-0.258_z-0.721' QUANTITY='TEMPERATURE'
      XYZ=0.605,-0.258,-0.721 /
&DEVC ID='Cube_x+0.653_y+0.387_z+0.463' QUANTITY='TEMPERATURE'
      XYZ=0.653,0.387,0.463 /
&DEVC ID='Cube_x+0.728_y+0.508_z+0.462' QUANTITY='TEMPERATURE'
      XYZ=0.728,0.508,0.462 /
&DEVC ID='Cube_x+0.839_y-0.563_z+0.213' QUANTITY='TEMPERATURE'
      XYZ=0.839,-0.563,0.213 /
&DEVC ID='Cube_x+0.913_y-0.443_z+0.212' QUANTITY='TEMPERATURE'
      XYZ=0.913,-0.443,0.212 /
&DEVC ID='Cube_x-0.020_y-0.693_z+0.471' QUANTITY='TEMPERATURE'
      XYZ=-0.020,-0.693,0.471 /
&DEVC ID='Cube_x-0.094_y-0.813_z+0.472' QUANTITY='TEMPERATURE'
      XYZ=-0.094,-0.813,0.472 /
&DEVC ID='Cube_x-0.205_y+0.258_z+0.721' QUANTITY='TEMPERATURE'
      XYZ=-0.205,0.258,0.721 /
&DEVC ID='Cube_x-0.280_y+0.137_z+0.722' QUANTITY='TEMPERATURE'
      XYZ=-0.280,0.137,0.722 /
&DEVC ID='Cube_x-0.328_y-0.508_z-0.462' QUANTITY='TEMPERATURE'
      XYZ=-0.328,-0.508,-0.462 /
&DEVC ID='Cube_x-0.403_y-0.628_z-0.461' QUANTITY='TEMPERATURE'
      XYZ=-0.403,-0.628,-0.461 /
&DEVC ID='Cube_x-0.513_y+0.443_z-0.212' QUANTITY='TEMPERATURE'
      XYZ=-0.513,0.443,-0.212 /
&DEVC ID='Cube_x-0.588_y+0.323_z-0.211' QUANTITY='TEMPERATURE'
      XYZ=-0.588,0.323,-0.211 /
! MESH Cell Size: 0.100 m, 0.100 m, 0.100 m | Qty: 8000 | Aspect: 1.0 | Poisson: Yes
&MESH ID='Domain' IJK=20,20,20
      XB=-1.000000,1.000000,-1.000000,1.000000,-1.000000,1.000000 /

&TAIL /
 
