! Generated by BlenderFDS 5.0.0 on Blender 2.83.3
! Date: <Sat, 12 Sep 2020, 10:08:26>
! File: <not saved>
! --- Case from Blender Scene <voxels_solid_modifiers>
&HEAD CHID='voxels_solid_modifiers' TITLE='Test voxels of solid w modifiers' /
&TIME T_END=1.0 /
 
! --- Geometric namelists from Blender Collection <Scene Collection>
&OBST ID='Cylinder_voxels_0' SURF_ID='INERT'
      XB=0.599990,0.800010,1.099990,1.200010,-0.600010,-0.399990 /
&OBST ID='Cylinder_voxels_1' SURF_ID='INERT'
      XB=0.399990,0.600010,1.099990,1.200010,-0.600010,-0.299990 /
&OBST ID='Cylinder_voxels_10' SURF_ID='INERT'
      XB=0.099990,0.200010,0.999990,1.100010,-0.800010,-0.099990 /
&OBST ID='Cylinder_voxels_100' SURF_ID='INERT'
      XB=0.199990,0.300010,0.299990,0.400010,-1.800010,-0.399990 /
&OBST ID='Cylinder_voxels_101' SURF_ID='INERT'
      XB=0.099990,0.200010,0.299990,0.400010,-0.300010,0.100010 /
&OBST ID='Cylinder_voxels_102' SURF_ID='INERT'
      XB=0.099990,0.200010,0.299990,0.400010,-1.700010,-0.399990 /
&OBST ID='Cylinder_voxels_103' SURF_ID='INERT'
      XB=-0.200010,-0.099990,0.299990,0.400010,-1.600010,0.000010 /
&OBST ID='Cylinder_voxels_104' SURF_ID='INERT'
      XB=-0.400010,-0.299990,0.299990,0.500010,-1.500010,-0.499990 /
&OBST ID='Cylinder_voxels_105' SURF_ID='INERT'
      XB=-0.500010,-0.399990,0.299990,0.400010,0.299990,0.400010 /
&OBST ID='Cylinder_voxels_106' SURF_ID='INERT'
      XB=-0.500010,-0.399990,0.299990,0.400010,-1.400010,-0.699990 /
&OBST ID='Cylinder_voxels_107' SURF_ID='INERT'
      XB=-0.600010,-0.499990,0.299990,0.400010,0.199990,0.500010 /
&OBST ID='Cylinder_voxels_108' SURF_ID='INERT'
      XB=-0.600010,-0.499990,0.299990,0.400010,-1.400010,-0.899990 /
&OBST ID='Cylinder_voxels_109' SURF_ID='INERT'
      XB=-0.700010,-0.599990,0.299990,0.400010,0.099990,0.500010 /
&OBST ID='Cylinder_voxels_11' SURF_ID='INERT'
      XB=0.999990,1.100010,0.899990,1.000010,-0.700010,-0.499990 /
&OBST ID='Cylinder_voxels_110' SURF_ID='INERT'
      XB=-0.700010,-0.599990,0.299990,0.400010,-1.300010,-1.099990 /
&OBST ID='Cylinder_voxels_111' SURF_ID='INERT'
      XB=-0.900010,-0.699990,0.299990,0.400010,0.099990,0.600010 /
&OBST ID='Cylinder_voxels_112' SURF_ID='INERT'
      XB=-1.000010,-0.899990,0.299990,0.400010,0.099990,0.700010 /
&OBST ID='Cylinder_voxels_113' SURF_ID='INERT'
      XB=-1.100010,-0.999990,0.299990,0.400010,0.299990,0.700010 /
&OBST ID='Cylinder_voxels_114' SURF_ID='INERT'
      XB=1.099990,1.200010,0.199990,0.500010,-1.000010,-0.399990 /
&OBST ID='Cylinder_voxels_115' SURF_ID='INERT'
      XB=0.899990,1.000010,0.199990,0.300010,-1.400010,-0.399990 /
&OBST ID='Cylinder_voxels_116' SURF_ID='INERT'
      XB=0.799990,0.900010,0.199990,0.300010,-1.600010,-0.699990 /
&OBST ID='Cylinder_voxels_117' SURF_ID='INERT'
      XB=0.399990,0.500010,0.199990,0.500010,-1.900010,-0.499990 /
&OBST ID='Cylinder_voxels_118' SURF_ID='INERT'
      XB=0.299990,0.400010,0.199990,0.300010,-0.100010,0.000010 /
&OBST ID='Cylinder_voxels_119' SURF_ID='INERT'
      XB=0.299990,0.400010,0.199990,0.300010,-1.800010,-0.399990 /
&OBST ID='Cylinder_voxels_12' SURF_ID='INERT'
      XB=0.899990,1.000010,0.899990,1.000010,-0.800010,-0.499990 /
&OBST ID='Cylinder_voxels_120' SURF_ID='INERT'
      XB=0.199990,0.300010,0.199990,0.300010,-0.200010,0.100010 /
&OBST ID='Cylinder_voxels_121' SURF_ID='INERT'
      XB=0.199990,0.300010,0.199990,0.300010,-1.800010,-0.399990 /
&OBST ID='Cylinder_voxels_122' SURF_ID='INERT'
      XB=0.099990,0.200010,0.199990,0.300010,-1.700010,0.100010 /
&OBST ID='Cylinder_voxels_123' SURF_ID='INERT'
      XB=-0.000010,0.100010,0.199990,0.400010,-1.700010,0.200010 /
&OBST ID='Cylinder_voxels_124' SURF_ID='INERT'
      XB=-0.100010,0.000010,0.199990,0.400010,-1.600010,0.100010 /
&OBST ID='Cylinder_voxels_125' SURF_ID='INERT'
      XB=-0.200010,-0.099990,0.199990,0.300010,-1.600010,-0.099990 /
&OBST ID='Cylinder_voxels_126' SURF_ID='INERT'
      XB=-0.400010,-0.299990,0.199990,0.300010,0.199990,0.400010 /
&OBST ID='Cylinder_voxels_127' SURF_ID='INERT'
      XB=-0.400010,-0.299990,0.199990,0.300010,-1.500010,-0.399990 /
&OBST ID='Cylinder_voxels_128' SURF_ID='INERT'
      XB=-0.500010,-0.399990,0.199990,0.300010,0.099990,0.400010 /
&OBST ID='Cylinder_voxels_129' SURF_ID='INERT'
      XB=-0.500010,-0.399990,0.199990,0.300010,-1.400010,-0.699990 /
&OBST ID='Cylinder_voxels_13' SURF_ID='INERT'
      XB=0.799990,0.900010,0.899990,1.000010,-0.900010,-0.399990 /
&OBST ID='Cylinder_voxels_130' SURF_ID='INERT'
      XB=-0.600010,-0.499990,0.199990,0.300010,-0.000010,0.500010 /
&OBST ID='Cylinder_voxels_131' SURF_ID='INERT'
      XB=-0.600010,-0.499990,0.199990,0.300010,-1.400010,-0.899990 /
&OBST ID='Cylinder_voxels_132' SURF_ID='INERT'
      XB=-0.700010,-0.599990,0.199990,0.300010,-0.100010,0.500010 /
&OBST ID='Cylinder_voxels_133' SURF_ID='INERT'
      XB=-0.700010,-0.599990,0.199990,0.300010,-1.300010,-1.099990 /
&OBST ID='Cylinder_voxels_134' SURF_ID='INERT'
      XB=-0.900010,-0.699990,0.199990,0.300010,-0.200010,0.600010 /
&OBST ID='Cylinder_voxels_135' SURF_ID='INERT'
      XB=-1.100010,-0.899990,0.199990,0.300010,-0.200010,0.700010 /
&OBST ID='Cylinder_voxels_136' SURF_ID='INERT'
      XB=-1.200010,-1.099990,0.199990,0.300010,-0.200010,0.800010 /
&OBST ID='Cylinder_voxels_137' SURF_ID='INERT'
      XB=-1.300010,-1.199990,0.199990,0.300010,-0.000010,0.500010 /
&OBST ID='Cylinder_voxels_138' SURF_ID='INERT'
      XB=1.199990,1.300010,0.099990,0.300010,-0.700010,-0.399990 /
&OBST ID='Cylinder_voxels_139' SURF_ID='INERT'
      XB=0.999990,1.100010,0.099990,0.400010,-1.200010,-0.299990 /
&OBST ID='Cylinder_voxels_14' SURF_ID='INERT'
      XB=0.699990,0.800010,0.899990,1.000010,-1.000010,-0.399990 /
&OBST ID='Cylinder_voxels_140' SURF_ID='INERT'
      XB=0.899990,1.000010,0.099990,0.200010,-1.400010,-0.199990 /
&OBST ID='Cylinder_voxels_141' SURF_ID='INERT'
      XB=0.799990,0.900010,0.099990,0.200010,-1.600010,-0.499990 /
&OBST ID='Cylinder_voxels_142' SURF_ID='INERT'
      XB=0.699990,0.800010,0.099990,0.300010,-1.800010,-0.599990 /
&OBST ID='Cylinder_voxels_143' SURF_ID='INERT'
      XB=0.599990,0.700010,0.099990,0.400010,-1.900010,-0.599990 /
&OBST ID='Cylinder_voxels_144' SURF_ID='INERT'
      XB=0.399990,0.500010,0.099990,0.200010,-0.100010,0.000010 /
&OBST ID='Cylinder_voxels_145' SURF_ID='INERT'
      XB=0.399990,0.500010,0.099990,0.200010,-1.800010,-0.499990 /
&OBST ID='Cylinder_voxels_146' SURF_ID='INERT'
      XB=0.299990,0.400010,0.099990,0.200010,-0.200010,0.100010 /
&OBST ID='Cylinder_voxels_147' SURF_ID='INERT'
      XB=0.299990,0.400010,0.099990,0.200010,-1.800010,-0.399990 /
&OBST ID='Cylinder_voxels_148' SURF_ID='INERT'
      XB=0.199990,0.300010,0.099990,0.200010,-0.300010,0.100010 /
&OBST ID='Cylinder_voxels_149' SURF_ID='INERT'
      XB=0.199990,0.300010,0.099990,0.200010,-1.700010,-0.399990 /
&OBST ID='Cylinder_voxels_15' SURF_ID='INERT'
      XB=0.599990,0.700010,0.899990,1.000010,-1.100010,-0.299990 /
&OBST ID='Cylinder_voxels_150' SURF_ID='INERT'
      XB=-0.000010,0.100010,0.099990,0.200010,-1.600010,0.200010 /
&OBST ID='Cylinder_voxels_151' SURF_ID='INERT'
      XB=-0.200010,-0.099990,0.099990,0.200010,-1.500010,-0.099990 /
&OBST ID='Cylinder_voxels_152' SURF_ID='INERT'
      XB=-0.300010,-0.199990,0.099990,0.200010,0.199990,0.400010 /
&OBST ID='Cylinder_voxels_153' SURF_ID='INERT'
      XB=-0.300010,-0.199990,0.099990,0.400010,-1.500010,-0.299990 /
&OBST ID='Cylinder_voxels_154' SURF_ID='INERT'
      XB=-0.400010,-0.299990,0.099990,0.200010,-0.000010,0.400010 /
&OBST ID='Cylinder_voxels_155' SURF_ID='INERT'
      XB=-0.400010,-0.299990,0.099990,0.200010,-1.400010,-0.499990 /
&OBST ID='Cylinder_voxels_156' SURF_ID='INERT'
      XB=-0.500010,-0.399990,0.099990,0.200010,-0.100010,0.500010 /
&OBST ID='Cylinder_voxels_157' SURF_ID='INERT'
      XB=-0.500010,-0.399990,0.099990,0.200010,-1.400010,-0.599990 /
&OBST ID='Cylinder_voxels_158' SURF_ID='INERT'
      XB=-0.600010,-0.499990,0.099990,0.200010,-0.200010,0.500010 /
&OBST ID='Cylinder_voxels_159' SURF_ID='INERT'
      XB=-0.600010,-0.499990,0.099990,0.200010,-1.300010,-0.799990 /
&OBST ID='Cylinder_voxels_16' SURF_ID='INERT'
      XB=0.499990,0.600010,0.899990,1.000010,-1.200010,-0.299990 /
&OBST ID='Cylinder_voxels_160' SURF_ID='INERT'
      XB=-0.700010,-0.599990,0.099990,0.200010,-0.300010,0.600010 /
&OBST ID='Cylinder_voxels_161' SURF_ID='INERT'
      XB=-0.700010,-0.599990,0.099990,0.200010,-1.300010,-1.099990 /
&OBST ID='Cylinder_voxels_162' SURF_ID='INERT'
      XB=-0.800010,-0.699990,0.099990,0.200010,-0.400010,0.600010 /
&OBST ID='Cylinder_voxels_163' SURF_ID='INERT'
      XB=-0.900010,-0.799990,0.099990,0.200010,-0.400010,0.700010 /
&OBST ID='Cylinder_voxels_164' SURF_ID='INERT'
      XB=-1.000010,-0.899990,0.099990,0.200010,-0.500010,0.700010 /
&OBST ID='Cylinder_voxels_165' SURF_ID='INERT'
      XB=-1.200010,-0.999990,0.099990,0.200010,-0.600010,0.800010 /
&OBST ID='Cylinder_voxels_166' SURF_ID='INERT'
      XB=-1.300010,-1.199990,0.099990,0.200010,-0.600010,0.900010 /
&OBST ID='Cylinder_voxels_167' SURF_ID='INERT'
      XB=-1.400010,-1.299990,0.099990,0.200010,-0.600010,0.700010 /
&OBST ID='Cylinder_voxels_168' SURF_ID='INERT'
      XB=-1.500010,-1.399990,0.099990,0.200010,-0.200010,0.000010 /
&OBST ID='Cylinder_voxels_169' SURF_ID='INERT'
      XB=1.199990,1.300010,-0.000010,0.100010,-0.600010,-0.399990 /
&OBST ID='Cylinder_voxels_17' SURF_ID='INERT'
      XB=0.299990,0.500010,0.899990,1.000010,-1.300010,-0.199990 /
&OBST ID='Cylinder_voxels_170' SURF_ID='INERT'
      XB=1.099990,1.200010,-0.000010,0.200010,-0.900010,-0.299990 /
&OBST ID='Cylinder_voxels_171' SURF_ID='INERT'
      XB=0.999990,1.100010,-0.000010,0.100010,-1.100010,-0.299990 /
&OBST ID='Cylinder_voxels_172' SURF_ID='INERT'
      XB=0.799990,0.900010,-0.000010,0.100010,-1.600010,-0.199990 /
&OBST ID='Cylinder_voxels_173' SURF_ID='INERT'
      XB=0.699990,0.800010,-0.000010,0.100010,-1.800010,-0.099990 /
&OBST ID='Cylinder_voxels_174' SURF_ID='INERT'
      XB=0.599990,0.700010,-0.000010,0.100010,-0.200010,-0.099990 /
&OBST ID='Cylinder_voxels_175' SURF_ID='INERT'
      XB=0.599990,0.700010,-0.000010,0.100010,-1.900010,-0.499990 /
&OBST ID='Cylinder_voxels_176' SURF_ID='INERT'
      XB=0.499990,0.600010,-0.000010,0.100010,-0.200010,0.000010 /
&OBST ID='Cylinder_voxels_177' SURF_ID='INERT'
      XB=0.499990,0.600010,-0.000010,0.300010,-1.900010,-0.499990 /
&OBST ID='Cylinder_voxels_178' SURF_ID='INERT'
      XB=0.399990,0.500010,-0.000010,0.100010,-0.300010,0.000010 /
&OBST ID='Cylinder_voxels_179' SURF_ID='INERT'
      XB=0.399990,0.500010,-0.000010,0.100010,-1.800010,-0.399990 /
&OBST ID='Cylinder_voxels_18' SURF_ID='INERT'
      XB=-0.000010,0.300010,0.899990,1.000010,-1.300010,-0.099990 /
&OBST ID='Cylinder_voxels_180' SURF_ID='INERT'
      XB=0.299990,0.400010,-0.000010,0.100010,-0.300010,0.100010 /
&OBST ID='Cylinder_voxels_181' SURF_ID='INERT'
      XB=0.299990,0.400010,-0.000010,0.100010,-1.800010,-0.399990 /
&OBST ID='Cylinder_voxels_182' SURF_ID='INERT'
      XB=0.199990,0.300010,-0.000010,0.100010,-1.700010,0.100010 /
&OBST ID='Cylinder_voxels_183' SURF_ID='INERT'
      XB=0.099990,0.200010,-0.000010,0.200010,-1.700010,0.200010 /
&OBST ID='Cylinder_voxels_184' SURF_ID='INERT'
      XB=-0.000010,0.100010,-0.000010,0.100010,-1.600010,0.100010 /
&OBST ID='Cylinder_voxels_185' SURF_ID='INERT'
      XB=-0.100010,0.000010,-0.000010,0.200010,-1.600010,0.000010 /
&OBST ID='Cylinder_voxels_186' SURF_ID='INERT'
      XB=-0.200010,-0.099990,-0.000010,0.100010,0.199990,0.300010 /
&OBST ID='Cylinder_voxels_187' SURF_ID='INERT'
      XB=-0.200010,-0.099990,-0.000010,0.100010,-1.500010,-0.199990 /
&OBST ID='Cylinder_voxels_188' SURF_ID='INERT'
      XB=-0.300010,-0.199990,-0.000010,0.100010,-0.000010,0.400010 /
&OBST ID='Cylinder_voxels_189' SURF_ID='INERT'
      XB=-0.300010,-0.199990,-0.000010,0.100010,-1.500010,-0.399990 /
&OBST ID='Cylinder_voxels_19' SURF_ID='INERT'
      XB=-0.100010,0.000010,0.899990,1.000010,-1.000010,-0.599990 /
&OBST ID='Cylinder_voxels_190' SURF_ID='INERT'
      XB=-0.400010,-0.299990,-0.000010,0.100010,-0.100010,0.400010 /
&OBST ID='Cylinder_voxels_191' SURF_ID='INERT'
      XB=-0.400010,-0.299990,-0.000010,0.100010,-1.400010,-0.499990 /
&OBST ID='Cylinder_voxels_192' SURF_ID='INERT'
      XB=-0.500010,-0.399990,-0.000010,0.100010,-0.200010,0.500010 /
&OBST ID='Cylinder_voxels_193' SURF_ID='INERT'
      XB=-0.500010,-0.399990,-0.000010,0.100010,-1.400010,-0.699990 /
&OBST ID='Cylinder_voxels_194' SURF_ID='INERT'
      XB=-0.600010,-0.499990,-0.000010,0.100010,-0.300010,0.500010 /
&OBST ID='Cylinder_voxels_195' SURF_ID='INERT'
      XB=-0.600010,-0.499990,-0.000010,0.100010,-1.300010,-0.899990 /
&OBST ID='Cylinder_voxels_196' SURF_ID='INERT'
      XB=-0.700010,-0.599990,-0.000010,0.100010,-0.500010,0.500010 /
&OBST ID='Cylinder_voxels_197' SURF_ID='INERT'
      XB=-0.700010,-0.599990,-0.000010,0.100010,-1.300010,-0.999990 /
&OBST ID='Cylinder_voxels_198' SURF_ID='INERT'
      XB=-0.800010,-0.699990,-0.000010,0.100010,-0.600010,0.500010 /
&OBST ID='Cylinder_voxels_199' SURF_ID='INERT'
      XB=-0.900010,-0.799990,-0.000010,0.100010,-0.600010,0.700010 /
&OBST ID='Cylinder_voxels_2' SURF_ID='INERT'
      XB=0.299990,0.400010,1.099990,1.200010,-0.500010,-0.199990 /
&OBST ID='Cylinder_voxels_20' SURF_ID='INERT'
      XB=1.099990,1.200010,0.799990,0.900010,-0.700010,-0.499990 /
&OBST ID='Cylinder_voxels_200' SURF_ID='INERT'
      XB=-1.000010,-0.899990,-0.000010,0.100010,-0.700010,0.700010 /
&OBST ID='Cylinder_voxels_201' SURF_ID='INERT'
      XB=-1.100010,-0.999990,-0.000010,0.100010,-0.800010,0.800010 /
&OBST ID='Cylinder_voxels_202' SURF_ID='INERT'
      XB=-1.200010,-1.099990,-0.000010,0.100010,-0.900010,0.800010 /
&OBST ID='Cylinder_voxels_203' SURF_ID='INERT'
      XB=-1.400010,-1.299990,-0.000010,0.100010,-0.900010,0.800010 /
&OBST ID='Cylinder_voxels_204' SURF_ID='INERT'
      XB=-1.500010,-1.399990,-0.000010,0.100010,-0.900010,0.500010 /
&OBST ID='Cylinder_voxels_205' SURF_ID='INERT'
      XB=-1.600010,-1.499990,-0.000010,0.100010,-0.800010,0.100010 /
&OBST ID='Cylinder_voxels_206' SURF_ID='INERT'
      XB=1.199990,1.300010,-0.100010,0.000010,-0.400010,-0.299990 /
&OBST ID='Cylinder_voxels_207' SURF_ID='INERT'
      XB=1.099990,1.200010,-0.100010,0.000010,-0.700010,-0.299990 /
&OBST ID='Cylinder_voxels_208' SURF_ID='INERT'
      XB=0.999990,1.100010,-0.100010,0.000010,-1.000010,-0.199990 /
&OBST ID='Cylinder_voxels_209' SURF_ID='INERT'
      XB=0.899990,1.000010,-0.100010,0.100010,-1.300010,-0.199990 /
&OBST ID='Cylinder_voxels_21' SURF_ID='INERT'
      XB=0.999990,1.100010,0.799990,0.900010,-0.800010,-0.499990 /
&OBST ID='Cylinder_voxels_210' SURF_ID='INERT'
      XB=0.799990,0.900010,-0.100010,0.000010,-1.500010,-0.099990 /
&OBST ID='Cylinder_voxels_211' SURF_ID='INERT'
      XB=0.599990,0.700010,-0.100010,0.000010,-1.900010,0.000010 /
&OBST ID='Cylinder_voxels_212' SURF_ID='INERT'
      XB=0.399990,0.500010,-0.100010,0.000010,-1.800010,0.100010 /
&OBST ID='Cylinder_voxels_213' SURF_ID='INERT'
      XB=0.199990,0.300010,-0.100010,0.000010,-1.700010,0.200010 /
&OBST ID='Cylinder_voxels_214' SURF_ID='INERT'
      XB=0.099990,0.200010,-0.100010,0.000010,-1.600010,0.100010 /
&OBST ID='Cylinder_voxels_215' SURF_ID='INERT'
      XB=-0.000010,0.100010,-0.100010,0.000010,-1.600010,0.000010 /
&OBST ID='Cylinder_voxels_216' SURF_ID='INERT'
      XB=-0.100010,0.000010,-0.100010,0.000010,0.199990,0.300010 /
&OBST ID='Cylinder_voxels_217' SURF_ID='INERT'
      XB=-0.100010,0.000010,-0.100010,0.000010,-1.500010,-0.099990 /
&OBST ID='Cylinder_voxels_218' SURF_ID='INERT'
      XB=-0.200010,-0.099990,-0.100010,0.000010,0.099990,0.400010 /
&OBST ID='Cylinder_voxels_219' SURF_ID='INERT'
      XB=-0.200010,-0.099990,-0.100010,0.000010,-1.500010,-0.299990 /
&OBST ID='Cylinder_voxels_22' SURF_ID='INERT'
      XB=0.899990,1.000010,0.799990,0.900010,-0.900010,-0.399990 /
&OBST ID='Cylinder_voxels_220' SURF_ID='INERT'
      XB=-0.300010,-0.199990,-0.100010,0.000010,-0.100010,0.400010 /
&OBST ID='Cylinder_voxels_221' SURF_ID='INERT'
      XB=-0.300010,-0.199990,-0.100010,0.000010,-1.400010,-0.399990 /
&OBST ID='Cylinder_voxels_222' SURF_ID='INERT'
      XB=-0.400010,-0.299990,-0.100010,0.000010,-0.200010,0.500010 /
&OBST ID='Cylinder_voxels_223' SURF_ID='INERT'
      XB=-0.400010,-0.299990,-0.100010,0.000010,-1.400010,-0.599990 /
&OBST ID='Cylinder_voxels_224' SURF_ID='INERT'
      XB=-0.500010,-0.399990,-0.100010,0.000010,-0.300010,0.500010 /
&OBST ID='Cylinder_voxels_225' SURF_ID='INERT'
      XB=-0.500010,-0.399990,-0.100010,0.000010,-1.300010,-0.799990 /
&OBST ID='Cylinder_voxels_226' SURF_ID='INERT'
      XB=-0.600010,-0.499990,-0.100010,0.000010,-0.500010,0.300010 /
&OBST ID='Cylinder_voxels_227' SURF_ID='INERT'
      XB=-0.600010,-0.499990,-0.100010,0.000010,-1.300010,-0.899990 /
&OBST ID='Cylinder_voxels_228' SURF_ID='INERT'
      XB=-0.700010,-0.599990,-0.100010,0.000010,-0.600010,0.300010 /
&OBST ID='Cylinder_voxels_229' SURF_ID='INERT'
      XB=-0.700010,-0.599990,-0.100010,0.000010,-1.200010,-1.099990 /
&OBST ID='Cylinder_voxels_23' SURF_ID='INERT'
      XB=0.799990,0.900010,0.799990,0.900010,-1.100010,-0.399990 /
&OBST ID='Cylinder_voxels_230' SURF_ID='INERT'
      XB=-0.800010,-0.699990,-0.100010,0.000010,-0.700010,0.200010 /
&OBST ID='Cylinder_voxels_231' SURF_ID='INERT'
      XB=-1.000010,-0.799990,-0.100010,0.000010,-0.900010,0.300010 /
&OBST ID='Cylinder_voxels_232' SURF_ID='INERT'
      XB=-1.100010,-0.999990,-0.100010,0.000010,-1.000010,0.800010 /
&OBST ID='Cylinder_voxels_233' SURF_ID='INERT'
      XB=-1.200010,-1.099990,-0.100010,0.000010,-1.000010,0.900010 /
&OBST ID='Cylinder_voxels_234' SURF_ID='INERT'
      XB=-1.400010,-1.299990,-0.100010,0.000010,-0.900010,1.000010 /
&OBST ID='Cylinder_voxels_235' SURF_ID='INERT'
      XB=-1.500010,-1.399990,-0.100010,0.000010,-0.800010,0.700010 /
&OBST ID='Cylinder_voxels_236' SURF_ID='INERT'
      XB=-1.600010,-1.499990,-0.100010,0.000010,-0.800010,0.400010 /
&OBST ID='Cylinder_voxels_237' SURF_ID='INERT'
      XB=-1.700010,-1.599990,-0.100010,0.000010,-0.700010,0.100010 /
&OBST ID='Cylinder_voxels_238' SURF_ID='INERT'
      XB=-1.800010,-1.699990,-0.100010,0.000010,-0.700010,-0.399990 /
&OBST ID='Cylinder_voxels_239' SURF_ID='INERT'
      XB=0.999990,1.100010,-0.200010,-0.099990,-0.800010,-0.199990 /
&OBST ID='Cylinder_voxels_24' SURF_ID='INERT'
      XB=0.699990,0.800010,0.799990,0.900010,-1.200010,-0.299990 /
&OBST ID='Cylinder_voxels_240' SURF_ID='INERT'
      XB=0.899990,1.000010,-0.200010,-0.099990,-1.100010,-0.199990 /
&OBST ID='Cylinder_voxels_241' SURF_ID='INERT'
      XB=0.799990,0.900010,-0.200010,-0.099990,-1.400010,-0.099990 /
&OBST ID='Cylinder_voxels_242' SURF_ID='INERT'
      XB=0.699990,0.800010,-0.200010,0.000010,-1.700010,-0.099990 /
&OBST ID='Cylinder_voxels_243' SURF_ID='INERT'
      XB=0.499990,0.600010,-0.200010,0.000010,-1.800010,0.000010 /
&OBST ID='Cylinder_voxels_244' SURF_ID='INERT'
      XB=0.299990,0.400010,-0.200010,0.000010,-1.700010,0.100010 /
&OBST ID='Cylinder_voxels_245' SURF_ID='INERT'
      XB=0.199990,0.300010,-0.200010,-0.099990,-1.600010,0.100010 /
&OBST ID='Cylinder_voxels_246' SURF_ID='INERT'
      XB=0.099990,0.200010,-0.200010,-0.099990,-1.600010,0.000010 /
&OBST ID='Cylinder_voxels_247' SURF_ID='INERT'
      XB=-0.000010,0.100010,-0.200010,-0.099990,-1.500010,-0.099990 /
&OBST ID='Cylinder_voxels_248' SURF_ID='INERT'
      XB=-0.100010,0.000010,-0.200010,-0.099990,0.199990,0.300010 /
&OBST ID='Cylinder_voxels_249' SURF_ID='INERT'
      XB=-0.100010,0.000010,-0.200010,-0.099990,-1.500010,-0.299990 /
&OBST ID='Cylinder_voxels_25' SURF_ID='INERT'
      XB=0.599990,0.700010,0.799990,0.900010,-1.300010,-0.299990 /
&OBST ID='Cylinder_voxels_250' SURF_ID='INERT'
      XB=-0.200010,-0.099990,-0.200010,-0.099990,-0.000010,0.400010 /
&OBST ID='Cylinder_voxels_251' SURF_ID='INERT'
      XB=-0.200010,-0.099990,-0.200010,-0.099990,-1.400010,-0.399990 /
&OBST ID='Cylinder_voxels_252' SURF_ID='INERT'
      XB=-0.300010,-0.199990,-0.200010,-0.099990,-0.100010,0.400010 /
&OBST ID='Cylinder_voxels_253' SURF_ID='INERT'
      XB=-0.300010,-0.199990,-0.200010,-0.099990,-1.400010,-0.499990 /
&OBST ID='Cylinder_voxels_254' SURF_ID='INERT'
      XB=-0.400010,-0.299990,-0.200010,-0.099990,-0.300010,0.500010 /
&OBST ID='Cylinder_voxels_255' SURF_ID='INERT'
      XB=-0.400010,-0.299990,-0.200010,-0.099990,-1.300010,-0.699990 /
&OBST ID='Cylinder_voxels_256' SURF_ID='INERT'
      XB=-0.500010,-0.399990,-0.200010,-0.099990,-0.500010,0.300010 /
&OBST ID='Cylinder_voxels_257' SURF_ID='INERT'
      XB=-0.500010,-0.399990,-0.200010,-0.099990,-1.300010,-0.799990 /
&OBST ID='Cylinder_voxels_258' SURF_ID='INERT'
      XB=-0.600010,-0.499990,-0.200010,-0.099990,-0.600010,0.200010 /
&OBST ID='Cylinder_voxels_259' SURF_ID='INERT'
      XB=-0.600010,-0.499990,-0.200010,-0.099990,-1.200010,-0.999990 /
&OBST ID='Cylinder_voxels_26' SURF_ID='INERT'
      XB=0.499990,0.600010,0.799990,0.900010,-1.400010,-0.199990 /
&OBST ID='Cylinder_voxels_260' SURF_ID='INERT'
      XB=-0.700010,-0.599990,-0.200010,-0.099990,-0.700010,0.200010 /
&OBST ID='Cylinder_voxels_261' SURF_ID='INERT'
      XB=-0.700010,-0.599990,-0.200010,-0.099990,-1.200010,-1.099990 /
&OBST ID='Cylinder_voxels_262' SURF_ID='INERT'
      XB=-0.800010,-0.699990,-0.200010,-0.099990,-0.900010,0.200010 /
&OBST ID='Cylinder_voxels_263' SURF_ID='INERT'
      XB=-1.000010,-0.799990,-0.200010,-0.099990,-1.000010,0.300010 /
&OBST ID='Cylinder_voxels_264' SURF_ID='INERT'
      XB=-1.100010,-0.999990,-0.200010,-0.099990,0.699990,0.800010 /
&OBST ID='Cylinder_voxels_265' SURF_ID='INERT'
      XB=-1.100010,-0.999990,-0.200010,-0.099990,-1.000010,0.400010 /
&OBST ID='Cylinder_voxels_266' SURF_ID='INERT'
      XB=-1.300010,-1.199990,-0.200010,0.100010,-0.900010,0.900010 /
&OBST ID='Cylinder_voxels_267' SURF_ID='INERT'
      XB=-1.700010,-1.599990,-0.200010,-0.099990,-0.700010,0.300010 /
&OBST ID='Cylinder_voxels_268' SURF_ID='INERT'
      XB=-1.800010,-1.699990,-0.200010,-0.099990,-0.600010,0.000010 /
&OBST ID='Cylinder_voxels_269' SURF_ID='INERT'
      XB=-1.900010,-1.799990,-0.200010,-0.099990,-0.600010,-0.299990 /
&OBST ID='Cylinder_voxels_27' SURF_ID='INERT'
      XB=0.399990,0.500010,0.799990,0.900010,-1.500010,-0.199990 /
&OBST ID='Cylinder_voxels_270' SURF_ID='INERT'
      XB=0.899990,1.000010,-0.300010,-0.199990,-0.800010,-0.099990 /
&OBST ID='Cylinder_voxels_271' SURF_ID='INERT'
      XB=0.799990,0.900010,-0.300010,-0.199990,-1.200010,-0.099990 /
&OBST ID='Cylinder_voxels_272' SURF_ID='INERT'
      XB=0.699990,0.800010,-0.300010,-0.199990,-1.500010,0.000010 /
&OBST ID='Cylinder_voxels_273' SURF_ID='INERT'
      XB=0.599990,0.700010,-0.300010,-0.099990,-1.800010,0.000010 /
&OBST ID='Cylinder_voxels_274' SURF_ID='INERT'
      XB=0.499990,0.600010,-0.300010,-0.199990,-1.800010,0.100010 /
&OBST ID='Cylinder_voxels_275' SURF_ID='INERT'
      XB=0.399990,0.500010,-0.300010,-0.099990,-1.700010,0.100010 /
&OBST ID='Cylinder_voxels_276' SURF_ID='INERT'
      XB=0.299990,0.400010,-0.300010,-0.199990,-1.700010,0.000010 /
&OBST ID='Cylinder_voxels_277' SURF_ID='INERT'
      XB=0.199990,0.300010,-0.300010,-0.199990,-1.600010,-0.099990 /
&OBST ID='Cylinder_voxels_278' SURF_ID='INERT'
      XB=0.099990,0.200010,-0.300010,-0.199990,-1.600010,-0.199990 /
&OBST ID='Cylinder_voxels_279' SURF_ID='INERT'
      XB=-0.000010,0.100010,-0.300010,-0.199990,-1.500010,-0.299990 /
&OBST ID='Cylinder_voxels_28' SURF_ID='INERT'
      XB=0.199990,0.400010,0.799990,0.900010,-1.600010,-0.099990 /
&OBST ID='Cylinder_voxels_280' SURF_ID='INERT'
      XB=-0.100010,0.000010,-0.300010,-0.199990,0.099990,0.400010 /
&OBST ID='Cylinder_voxels_281' SURF_ID='INERT'
      XB=-0.100010,0.000010,-0.300010,-0.199990,-1.500010,-0.399990 /
&OBST ID='Cylinder_voxels_282' SURF_ID='INERT'
      XB=-0.200010,-0.099990,-0.300010,-0.199990,-0.000010,0.400010 /
&OBST ID='Cylinder_voxels_283' SURF_ID='INERT'
      XB=-0.200010,-0.099990,-0.300010,-0.199990,-1.400010,-0.499990 /
&OBST ID='Cylinder_voxels_284' SURF_ID='INERT'
      XB=-0.300010,-0.199990,-0.300010,-0.199990,-0.200010,0.500010 /
&OBST ID='Cylinder_voxels_285' SURF_ID='INERT'
      XB=-0.300010,-0.199990,-0.300010,-0.199990,-1.400010,-0.599990 /
&OBST ID='Cylinder_voxels_286' SURF_ID='INERT'
      XB=-0.400010,-0.299990,-0.300010,-0.199990,-0.400010,0.400010 /
&OBST ID='Cylinder_voxels_287' SURF_ID='INERT'
      XB=-0.400010,-0.299990,-0.300010,-0.199990,-1.300010,-0.799990 /
&OBST ID='Cylinder_voxels_288' SURF_ID='INERT'
      XB=-0.500010,-0.399990,-0.300010,-0.199990,-0.500010,0.300010 /
&OBST ID='Cylinder_voxels_289' SURF_ID='INERT'
      XB=-0.500010,-0.399990,-0.300010,-0.199990,-1.300010,-0.899990 /
&OBST ID='Cylinder_voxels_29' SURF_ID='INERT'
      XB=-0.000010,0.200010,0.799990,0.900010,-1.700010,0.000010 /
&OBST ID='Cylinder_voxels_290' SURF_ID='INERT'
      XB=-0.600010,-0.499990,-0.300010,-0.199990,-0.700010,0.200010 /
&OBST ID='Cylinder_voxels_291' SURF_ID='INERT'
      XB=-0.600010,-0.499990,-0.300010,-0.199990,-1.200010,-0.999990 /
&OBST ID='Cylinder_voxels_292' SURF_ID='INERT'
      XB=-0.700010,-0.599990,-0.300010,-0.199990,-0.800010,0.200010 /
&OBST ID='Cylinder_voxels_293' SURF_ID='INERT'
      XB=-0.800010,-0.699990,-0.300010,-0.199990,-1.000010,0.300010 /
&OBST ID='Cylinder_voxels_294' SURF_ID='INERT'
      XB=-0.900010,-0.799990,-0.300010,-0.199990,-1.100010,0.300010 /
&OBST ID='Cylinder_voxels_295' SURF_ID='INERT'
      XB=-1.100010,-0.999990,-0.300010,-0.199990,0.799990,0.900010 /
&OBST ID='Cylinder_voxels_296' SURF_ID='INERT'
      XB=-1.100010,-0.999990,-0.300010,-0.199990,-1.000010,0.400010 /
&OBST ID='Cylinder_voxels_297' SURF_ID='INERT'
      XB=-1.200010,-1.099990,-0.300010,-0.099990,-0.900010,0.900010 /
&OBST ID='Cylinder_voxels_298' SURF_ID='INERT'
      XB=-1.300010,-1.199990,-0.300010,-0.199990,-0.900010,1.000010 /
&OBST ID='Cylinder_voxels_299' SURF_ID='INERT'
      XB=-1.400010,-1.299990,-0.300010,-0.099990,-0.800010,1.000010 /
&OBST ID='Cylinder_voxels_3' SURF_ID='INERT'
      XB=0.899990,1.100010,0.999990,1.100010,-0.600010,-0.499990 /
&OBST ID='Cylinder_voxels_30' SURF_ID='INERT'
      XB=-0.100010,0.000010,0.799990,0.900010,-1.700010,-0.199990 /
&OBST ID='Cylinder_voxels_300' SURF_ID='INERT'
      XB=-1.500010,-1.399990,-0.300010,-0.099990,-0.800010,0.800010 /
&OBST ID='Cylinder_voxels_301' SURF_ID='INERT'
      XB=-1.600010,-1.499990,-0.300010,-0.099990,-0.700010,0.600010 /
&OBST ID='Cylinder_voxels_302' SURF_ID='INERT'
      XB=-1.700010,-1.599990,-0.300010,-0.199990,-0.700010,0.400010 /
&OBST ID='Cylinder_voxels_303' SURF_ID='INERT'
      XB=-1.800010,-1.699990,-0.300010,-0.199990,-0.600010,0.100010 /
&OBST ID='Cylinder_voxels_304' SURF_ID='INERT'
      XB=-1.900010,-1.799990,-0.300010,-0.199990,-0.600010,-0.199990 /
&OBST ID='Cylinder_voxels_305' SURF_ID='INERT'
      XB=0.799990,0.900010,-0.400010,-0.299990,-0.700010,-0.599990 /
&OBST ID='Cylinder_voxels_306' SURF_ID='INERT'
      XB=0.699990,0.800010,-0.400010,-0.299990,-1.300010,-0.199990 /
&OBST ID='Cylinder_voxels_307' SURF_ID='INERT'
      XB=0.399990,0.700010,-0.400010,-0.299990,-1.700010,-0.199990 /
&OBST ID='Cylinder_voxels_308' SURF_ID='INERT'
      XB=0.299990,0.400010,-0.400010,-0.299990,-1.600010,-0.199990 /
&OBST ID='Cylinder_voxels_309' SURF_ID='INERT'
      XB=0.199990,0.300010,-0.400010,-0.299990,-1.600010,-0.299990 /
&OBST ID='Cylinder_voxels_31' SURF_ID='INERT'
      XB=-0.200010,-0.099990,0.799990,0.900010,-1.600010,-0.499990 /
&OBST ID='Cylinder_voxels_310' SURF_ID='INERT'
      XB=0.099990,0.200010,-0.400010,-0.299990,-1.500010,-0.399990 /
&OBST ID='Cylinder_voxels_311' SURF_ID='INERT'
      XB=-0.000010,0.100010,-0.400010,-0.299990,0.299990,0.400010 /
&OBST ID='Cylinder_voxels_312' SURF_ID='INERT'
      XB=-0.000010,0.100010,-0.400010,-0.299990,-1.500010,-0.499990 /
&OBST ID='Cylinder_voxels_313' SURF_ID='INERT'
      XB=-0.100010,0.000010,-0.400010,-0.299990,0.099990,0.400010 /
&OBST ID='Cylinder_voxels_314' SURF_ID='INERT'
      XB=-0.100010,0.000010,-0.400010,-0.299990,-1.400010,-0.499990 /
&OBST ID='Cylinder_voxels_315' SURF_ID='INERT'
      XB=-0.200010,-0.099990,-0.400010,-0.299990,-0.100010,0.500010 /
&OBST ID='Cylinder_voxels_316' SURF_ID='INERT'
      XB=-0.200010,-0.099990,-0.400010,-0.299990,-1.400010,-0.599990 /
&OBST ID='Cylinder_voxels_317' SURF_ID='INERT'
      XB=-0.300010,-0.199990,-0.400010,-0.299990,-0.200010,0.500010 /
&OBST ID='Cylinder_voxels_318' SURF_ID='INERT'
      XB=-0.300010,-0.199990,-0.400010,-0.299990,-1.300010,-0.799990 /
&OBST ID='Cylinder_voxels_319' SURF_ID='INERT'
      XB=-0.400010,-0.299990,-0.400010,-0.299990,-0.400010,0.400010 /
&OBST ID='Cylinder_voxels_32' SURF_ID='INERT'
      XB=-0.300010,-0.199990,0.799990,0.900010,-1.300010,-1.199990 /
&OBST ID='Cylinder_voxels_320' SURF_ID='INERT'
      XB=-0.400010,-0.299990,-0.400010,-0.299990,-1.300010,-0.899990 /
&OBST ID='Cylinder_voxels_321' SURF_ID='INERT'
      XB=-0.500010,-0.399990,-0.400010,-0.299990,-0.600010,0.200010 /
&OBST ID='Cylinder_voxels_322' SURF_ID='INERT'
      XB=-0.500010,-0.399990,-0.400010,-0.299990,-1.200010,-0.999990 /
&OBST ID='Cylinder_voxels_323' SURF_ID='INERT'
      XB=-0.700010,-0.599990,-0.400010,-0.299990,-0.900010,0.200010 /
&OBST ID='Cylinder_voxels_324' SURF_ID='INERT'
      XB=-0.900010,-0.799990,-0.400010,-0.299990,-1.000010,0.300010 /
&OBST ID='Cylinder_voxels_325' SURF_ID='INERT'
      XB=-1.100010,-0.999990,-0.400010,-0.299990,0.799990,0.900010 /
&OBST ID='Cylinder_voxels_326' SURF_ID='INERT'
      XB=-1.100010,-0.999990,-0.400010,-0.299990,-0.900010,0.400010 /
&OBST ID='Cylinder_voxels_327' SURF_ID='INERT'
      XB=-1.200010,-1.099990,-0.400010,-0.299990,0.599990,1.000010 /
&OBST ID='Cylinder_voxels_328' SURF_ID='INERT'
      XB=-1.200010,-1.099990,-0.400010,-0.299990,-0.900010,0.500010 /
&OBST ID='Cylinder_voxels_329' SURF_ID='INERT'
      XB=-1.400010,-1.299990,-0.400010,-0.299990,-0.800010,1.100010 /