! Generated by BlenderFDS 5.0.0 on Blender 2.83.3
! Date: <Sat, 12 Sep 2020, 10:08:26>
! File: <not saved>
! --- Case from Blender Scene <voxels_solid_indexes>
&HEAD CHID='voxels_solid_indexes' TITLE='Test voxel indexes' /
&TIME T_END=1.0 /
 
! --- Geometric namelists from Blender Collection <Master Collection>
&OBST ID='Cube_index_0' SURF_ID='INERT'
      XB=0.799990,0.850010,0.899990,0.950010,-0.000010,0.050010 /
&OBST ID='Cube_index_1' SURF_ID='INERT'
      XB=0.749990,0.850010,0.899990,0.950010,-0.050010,0.000010 /
&OBST ID='Cube_index_10' SURF_ID='INERT'
      XB=0.549990,0.850010,0.849990,0.900010,-0.150010,-0.099990 /
&OBST ID='Cube_index_11' SURF_ID='INERT'
      XB=0.699990,0.800010,0.849990,0.950010,-0.200010,-0.149990 /
&OBST ID='Cube_index_12' SURF_ID='INERT'
      XB=0.549990,0.750010,0.799990,0.850010,0.199990,0.250010 /
&OBST ID='Cube_index_13' SURF_ID='INERT'
      XB=0.499990,0.900010,0.799990,0.850010,0.099990,0.200010 /
&OBST ID='Cube_index_14' SURF_ID='INERT'
      XB=0.449990,0.900010,0.799990,0.850010,0.049990,0.100010 /
&OBST ID='Cube_index_15' SURF_ID='INERT'
      XB=0.449990,0.850010,0.799990,0.850010,-0.050010,0.000010 /
&OBST ID='Cube_index_16' SURF_ID='INERT'
      XB=0.499990,0.850010,0.799990,0.850010,-0.150010,-0.099990 /
&OBST ID='Cube_index_17' SURF_ID='INERT'
      XB=0.499990,0.850010,0.749990,0.800010,0.149990,0.200010 /
&OBST ID='Cube_index_18' SURF_ID='INERT'
      XB=0.499990,0.900010,0.749990,0.800010,0.049990,0.100010 /
&OBST ID='Cube_index_19' SURF_ID='INERT'
      XB=0.449990,0.900010,0.749990,0.850010,-0.000010,0.050010 /
&OBST ID='Cube_index_2' SURF_ID='INERT'
      XB=0.649990,0.850010,0.899990,0.950010,-0.100010,-0.049990 /
&OBST ID='Cube_index_20' SURF_ID='INERT'
      XB=0.449990,0.850010,0.749990,0.850010,-0.100010,-0.049990 /
&OBST ID='Cube_index_21' SURF_ID='INERT'
      XB=0.649990,0.850010,0.749990,0.850010,-0.200010,-0.149990 /
&OBST ID='Cube_index_22' SURF_ID='INERT'
      XB=0.799990,0.850010,0.749990,0.800010,-0.250010,-0.199990 /
&OBST ID='Cube_index_23' SURF_ID='INERT'
      XB=0.549990,0.700010,0.699990,0.800010,0.199990,0.250010 /
&OBST ID='Cube_index_24' SURF_ID='INERT'
      XB=0.549990,0.850010,0.699990,0.750010,0.149990,0.200010 /
&OBST ID='Cube_index_25' SURF_ID='INERT'
      XB=0.499990,0.950010,0.699990,0.800010,0.099990,0.150010 /
&OBST ID='Cube_index_26' SURF_ID='INERT'
      XB=0.499990,0.900010,0.699990,0.750010,-0.000010,0.050010 /
&OBST ID='Cube_index_27' SURF_ID='INERT'
      XB=0.449990,0.900010,0.699990,0.800010,-0.050010,0.000010 /
&OBST ID='Cube_index_28' SURF_ID='INERT'
      XB=0.449990,0.850010,0.699990,0.800010,-0.150010,-0.099990 /
&OBST ID='Cube_index_29' SURF_ID='INERT'
      XB=0.599990,0.850010,0.699990,0.750010,-0.200010,-0.149990 /
&OBST ID='Cube_index_3' SURF_ID='INERT'
      XB=0.599990,0.800010,0.899990,0.950010,-0.150010,-0.099990 /
&OBST ID='Cube_index_30' SURF_ID='INERT'
      XB=0.749990,0.850010,0.699990,0.750010,-0.250010,-0.199990 /
&OBST ID='Cube_index_31' SURF_ID='INERT'
      XB=0.549990,0.650010,0.649990,0.700010,0.199990,0.250010 /
&OBST ID='Cube_index_32' SURF_ID='INERT'
      XB=0.549990,0.800010,0.649990,0.700010,0.149990,0.200010 /
&OBST ID='Cube_index_33' SURF_ID='INERT'
      XB=0.499990,0.950010,0.649990,0.750010,0.049990,0.100010 /
&OBST ID='Cube_index_34' SURF_ID='INERT'
      XB=0.499990,0.900010,0.649990,0.700010,-0.050010,0.000010 /
&OBST ID='Cube_index_35' SURF_ID='INERT'
      XB=0.449990,0.900010,0.649990,0.750010,-0.100010,-0.049990 /
&OBST ID='Cube_index_36' SURF_ID='INERT'
      XB=0.549990,0.850010,0.649990,0.700010,-0.200010,-0.149990 /
&OBST ID='Cube_index_37' SURF_ID='INERT'
      XB=0.549990,0.600010,0.599990,0.650010,0.199990,0.250010 /
&OBST ID='Cube_index_38' SURF_ID='INERT'
      XB=0.549990,0.950010,0.599990,0.700010,0.099990,0.150010 /
&OBST ID='Cube_index_39' SURF_ID='INERT'
      XB=0.499990,0.950010,0.599990,0.700010,-0.000010,0.050010 /
&OBST ID='Cube_index_4' SURF_ID='INERT'
      XB=0.749990,0.900010,0.849990,0.900010,0.149990,0.200010 /
&OBST ID='Cube_index_40' SURF_ID='INERT'
      XB=0.499990,0.900010,0.599990,0.650010,-0.100010,-0.049990 /
&OBST ID='Cube_index_41' SURF_ID='INERT'
      XB=0.449990,0.900010,0.599990,0.700010,-0.150010,-0.099990 /
&OBST ID='Cube_index_42' SURF_ID='INERT'
      XB=0.549990,0.900010,0.599990,0.650010,-0.200010,-0.149990 /
&OBST ID='Cube_index_43' SURF_ID='INERT'
      XB=0.699990,0.850010,0.599990,0.700010,-0.250010,-0.199990 /
&OBST ID='Cube_index_44' SURF_ID='INERT'
      XB=0.549990,0.750010,0.549990,0.650010,0.149990,0.200010 /
&OBST ID='Cube_index_45' SURF_ID='INERT'
      XB=0.549990,0.900010,0.549990,0.600010,0.099990,0.150010 /
&OBST ID='Cube_index_46' SURF_ID='INERT'
      XB=0.549990,0.950010,0.549990,0.650010,0.049990,0.100010 /
&OBST ID='Cube_index_47' SURF_ID='INERT'
      XB=0.549990,0.950010,0.549990,0.600010,-0.000010,0.050010 /
&OBST ID='Cube_index_48' SURF_ID='INERT'
      XB=0.499990,0.950010,0.549990,0.650010,-0.050010,0.000010 /
&OBST ID='Cube_index_49' SURF_ID='INERT'
      XB=0.499990,0.950010,0.549990,0.600010,-0.100010,-0.049990 /
&OBST ID='Cube_index_5' SURF_ID='INERT'
      XB=0.699990,0.900010,0.849990,0.900010,0.099990,0.150010 /
&OBST ID='Cube_index_50' SURF_ID='INERT'
      XB=0.499990,0.900010,0.549990,0.600010,-0.200010,-0.099990 /
&OBST ID='Cube_index_51' SURF_ID='INERT'
      XB=0.649990,0.850010,0.549990,0.600010,-0.250010,-0.199990 /
&OBST ID='Cube_index_52' SURF_ID='INERT'
      XB=0.549990,0.850010,0.499990,0.550010,0.099990,0.150010 /
&OBST ID='Cube_index_53' SURF_ID='INERT'
      XB=0.549990,1.000010,0.499990,0.550010,0.049990,0.100010 /
&OBST ID='Cube_index_54' SURF_ID='INERT'
      XB=0.549990,0.900010,0.499990,0.550010,-0.000010,0.050010 /
&OBST ID='Cube_index_55' SURF_ID='INERT'
      XB=0.549990,0.850010,0.499990,0.550010,-0.050010,0.000010 /
&OBST ID='Cube_index_56' SURF_ID='INERT'
      XB=0.499990,0.800010,0.499990,0.550010,-0.100010,-0.049990 /
&OBST ID='Cube_index_57' SURF_ID='INERT'
      XB=0.499990,0.700010,0.499990,0.550010,-0.150010,-0.099990 /
&OBST ID='Cube_index_58' SURF_ID='INERT'
      XB=0.499990,0.650010,0.499990,0.550010,-0.200010,-0.149990 /
&OBST ID='Cube_index_59' SURF_ID='INERT'
      XB=0.599990,0.700010,0.449990,0.550010,0.149990,0.200010 /
&OBST ID='Cube_index_6' SURF_ID='INERT'
      XB=0.599990,0.900010,0.849990,0.900010,0.049990,0.100010 /
&OBST ID='Cube_index_60' SURF_ID='INERT'
      XB=0.599990,0.800010,0.449990,0.500010,0.099990,0.150010 /
&OBST ID='Cube_index_61' SURF_ID='INERT'
      XB=0.549990,0.750010,0.449990,0.500010,0.049990,0.100010 /
&OBST ID='Cube_index_62' SURF_ID='INERT'
      XB=0.549990,0.650010,0.449990,0.500010,-0.000010,0.050010 /
&OBST ID='Cube_index_63' SURF_ID='INERT'
      XB=0.549990,0.600010,0.449990,0.500010,-0.050010,0.000010 /
&OBST ID='Cube_index_7' SURF_ID='INERT'
      XB=0.549990,0.850010,0.849990,0.900010,-0.000010,0.050010 /
&OBST ID='Cube_index_8' SURF_ID='INERT'
      XB=0.499990,0.850010,0.849990,0.900010,-0.050010,0.000010 /
&OBST ID='Cube_index_9' SURF_ID='INERT'
      XB=0.399990,0.850010,0.849990,0.900010,-0.100010,-0.049990 /
&OBST ID='Cube_x_x+0.001' SURF_ID='INERT'
      XB=0.749990,0.850010,0.199990,0.250010,-0.050010,0.000010 /
&OBST ID='Cube_x_x+0.002' SURF_ID='INERT'
      XB=0.599990,0.800010,0.199990,0.250010,-0.150010,-0.099990 /
&OBST ID='Cube_x_x+0.003' SURF_ID='INERT'
      XB=0.549990,0.850010,0.149990,0.200010,-0.000010,0.050010 /
&OBST ID='Cube_x_x+0.004' SURF_ID='INERT'
      XB=0.699990,0.900010,0.149990,0.200010,0.099990,0.150010 /
&OBST ID='Cube_x_x+0.005' SURF_ID='INERT'
      XB=0.549990,0.850010,0.149990,0.200010,-0.150010,-0.099990 /
&OBST ID='Cube_x_x+0.006' SURF_ID='INERT'
      XB=0.499990,0.850010,0.149990,0.200010,-0.050010,0.000010 /
&OBST ID='Cube_x_x+0.007' SURF_ID='INERT'
      XB=0.449990,0.900010,0.099990,0.150010,0.049990,0.100010 /
&OBST ID='Cube_x_x+0.008' SURF_ID='INERT'
      XB=0.499990,0.900010,0.099990,0.150010,0.099990,0.200010 /
&OBST ID='Cube_x_x+0.009' SURF_ID='INERT'
      XB=0.499990,0.850010,0.099990,0.150010,-0.150010,-0.099990 /
&OBST ID='Cube_x_x+0.010' SURF_ID='INERT'
      XB=0.499990,0.850010,0.049990,0.100010,0.149990,0.200010 /
&OBST ID='Cube_x_x+0.011' SURF_ID='INERT'
      XB=0.449990,0.850010,0.099990,0.150010,-0.050010,0.000010 /
&OBST ID='Cube_x_x+0.012' SURF_ID='INERT'
      XB=0.449990,0.900010,0.049990,0.150010,-0.000010,0.050010 /
&OBST ID='Cube_x_x+0.013' SURF_ID='INERT'
      XB=0.649990,0.850010,0.199990,0.250010,-0.100010,-0.049990 /
&OBST ID='Cube_x_x+0.014' SURF_ID='INERT'
      XB=0.799990,0.850010,0.199990,0.250010,-0.000010,0.050010 /
&OBST ID='Cube_x_x+0.015' SURF_ID='INERT'
      XB=0.549990,0.750010,0.099990,0.150010,0.199990,0.250010 /
&OBST ID='Cube_x_x+0.016' SURF_ID='INERT'
      XB=0.549990,0.700010,-0.000010,0.100010,0.199990,0.250010 /
&OBST ID='Cube_x_x+0.017' SURF_ID='INERT'
      XB=0.499990,0.900010,0.049990,0.100010,0.049990,0.100010 /
&OBST ID='Cube_x_x+0.018' SURF_ID='INERT'
      XB=0.499990,0.950010,-0.000010,0.100010,0.099990,0.150010 /
&OBST ID='Cube_x_x+0.019' SURF_ID='INERT'
      XB=0.449990,0.850010,0.049990,0.150010,-0.100010,-0.049990 /
&OBST ID='Cube_x_x+0.020' SURF_ID='INERT'
      XB=0.449990,0.900010,-0.000010,0.100010,-0.050010,0.000010 /
&OBST ID='Cube_x_x+0.021' SURF_ID='INERT'
      XB=0.599990,0.900010,0.149990,0.200010,0.049990,0.100010 /
&OBST ID='Cube_x_x+0.022' SURF_ID='INERT'
      XB=0.749990,0.900010,0.149990,0.200010,0.149990,0.200010 /
&OBST ID='Cube_x_x+0.023' SURF_ID='INERT'
      XB=0.549990,0.850010,-0.000010,0.050010,0.149990,0.200010 /
&OBST ID='Cube_x_x+0.024' SURF_ID='INERT'
      XB=0.549990,0.650010,-0.050010,0.000010,0.199990,0.250010 /
&OBST ID='Cube_x_x+0.025' SURF_ID='INERT'
      XB=0.499990,0.900010,-0.000010,0.050010,-0.000010,0.050010 /
&OBST ID='Cube_x_x+0.026' SURF_ID='INERT'
      XB=0.499990,0.950010,-0.050010,0.050010,0.049990,0.100010 /
&OBST ID='Cube_x_x+0.027' SURF_ID='INERT'
      XB=0.449990,0.850010,-0.000010,0.100010,-0.150010,-0.099990 /
&OBST ID='Cube_x_x+0.028' SURF_ID='INERT'
      XB=0.549990,0.800010,-0.050010,0.000010,0.149990,0.200010 /
&OBST ID='Cube_x_x+0.029' SURF_ID='INERT'
      XB=0.549990,0.850010,-0.050010,0.000010,-0.200010,-0.149990 /
&OBST ID='Cube_x_x+0.030' SURF_ID='INERT'
      XB=0.549990,0.600010,-0.100010,-0.049990,0.199990,0.250010 /
&OBST ID='Cube_x_x+0.031' SURF_ID='INERT'
      XB=0.499990,0.900010,-0.050010,0.000010,-0.050010,0.000010 /
&OBST ID='Cube_x_x+0.032' SURF_ID='INERT'
      XB=0.499990,0.950010,-0.100010,0.000010,-0.000010,0.050010 /
&OBST ID='Cube_x_x+0.033' SURF_ID='INERT'
      XB=0.449990,0.900010,-0.050010,0.050010,-0.100010,-0.049990 /
&OBST ID='Cube_x_x+0.034' SURF_ID='INERT'
      XB=0.549990,0.950010,-0.100010,0.000010,0.099990,0.150010 /
&OBST ID='Cube_x_x+0.035' SURF_ID='INERT'
      XB=0.699990,0.800010,0.149990,0.250010,-0.200010,-0.149990 /
&OBST ID='Cube_x_x+0.036' SURF_ID='INERT'
      XB=0.549990,0.900010,-0.100010,-0.049990,-0.200010,-0.149990 /
&OBST ID='Cube_x_x+0.037' SURF_ID='INERT'
      XB=0.549990,0.750010,-0.150010,-0.049990,0.149990,0.200010 /
&OBST ID='Cube_x_x+0.038' SURF_ID='INERT'
      XB=0.549990,0.900010,-0.150010,-0.099990,0.099990,0.150010 /
&OBST ID='Cube_x_x+0.039' SURF_ID='INERT'
      XB=0.549990,0.950010,-0.150010,-0.049990,0.049990,0.100010 /
&OBST ID='Cube_x_x+0.040' SURF_ID='INERT'
      XB=0.499990,0.900010,-0.100010,-0.049990,-0.100010,-0.049990 /
&OBST ID='Cube_x_x+0.041' SURF_ID='INERT'
      XB=0.499990,0.950010,-0.150010,-0.049990,-0.050010,0.000010 /
&OBST ID='Cube_x_x+0.042' SURF_ID='INERT'
      XB=0.499990,0.950010,-0.150010,-0.099990,-0.100010,-0.049990 /
&OBST ID='Cube_x_x+0.043' SURF_ID='INERT'
      XB=0.649990,0.850010,0.049990,0.150010,-0.200010,-0.149990 /
&OBST ID='Cube_x_x+0.044' SURF_ID='INERT'
      XB=0.549990,0.950010,-0.150010,-0.099990,-0.000010,0.050010 /
&OBST ID='Cube_x_x+0.045' SURF_ID='INERT'
      XB=0.549990,0.850010,-0.200010,-0.149990,0.099990,0.150010 /
&OBST ID='Cube_x_x+0.046' SURF_ID='INERT'
      XB=0.549990,1.000010,-0.200010,-0.149990,0.049990,0.100010 /
&OBST ID='Cube_x_x+0.047' SURF_ID='INERT'
      XB=0.549990,0.900010,-0.200010,-0.149990,-0.000010,0.050010 /
&OBST ID='Cube_x_x+0.048' SURF_ID='INERT'
      XB=0.499990,0.900010,-0.150010,-0.099990,-0.200010,-0.099990 /
&OBST ID='Cube_x_x+0.049' SURF_ID='INERT'
      XB=0.499990,0.800010,-0.200010,-0.149990,-0.100010,-0.049990 /
&OBST ID='Cube_x_x+0.050' SURF_ID='INERT'
      XB=0.499990,0.700010,-0.200010,-0.149990,-0.150010,-0.099990 /
&OBST ID='Cube_x_x+0.051' SURF_ID='INERT'
      XB=0.599990,0.850010,-0.000010,0.050010,-0.200010,-0.149990 /
&OBST ID='Cube_x_x+0.052' SURF_ID='INERT'
      XB=0.599990,0.700010,-0.250010,-0.149990,0.149990,0.200010 /
&OBST ID='Cube_x_x+0.053' SURF_ID='INERT'
      XB=0.549990,0.850010,-0.200010,-0.149990,-0.050010,0.000010 /
&OBST ID='Cube_x_x+0.054' SURF_ID='INERT'
      XB=0.549990,0.750010,-0.250010,-0.199990,0.049990,0.100010 /
&OBST ID='Cube_x_x+0.055' SURF_ID='INERT'
      XB=0.549990,0.650010,-0.250010,-0.199990,-0.000010,0.050010 /
&OBST ID='Cube_x_x+0.400' SURF_ID='INERT'
      XB=0.399990,0.850010,0.149990,0.200010,-0.100010,-0.049990 /
&OBST ID='Cube_x_x+0.450' SURF_ID='INERT'
      XB=0.449990,0.900010,-0.100010,0.000010,-0.150010,-0.099990 /
&OBST ID='Cube_x_x+0.500' SURF_ID='INERT'
      XB=0.499990,0.650010,-0.200010,-0.149990,-0.200010,-0.149990 /
&OBST ID='Cube_x_x+0.550' SURF_ID='INERT'
      XB=0.549990,0.600010,-0.250010,-0.199990,-0.050010,0.000010 /
&OBST ID='Cube_x_x+0.600' SURF_ID='INERT'
      XB=0.599990,0.800010,-0.250010,-0.199990,0.099990,0.150010 /
&OBST ID='Cube_x_x+0.650' SURF_ID='INERT'
      XB=0.649990,0.850010,-0.150010,-0.099990,-0.250010,-0.199990 /
&OBST ID='Cube_x_x+0.700' SURF_ID='INERT'
      XB=0.699990,0.850010,-0.100010,0.000010,-0.250010,-0.199990 /
&OBST ID='Cube_x_x+0.750' SURF_ID='INERT'
      XB=0.749990,0.850010,-0.000010,0.050010,-0.250010,-0.199990 /
&OBST ID='Cube_x_x+0.800' SURF_ID='INERT'
      XB=0.799990,0.850010,0.049990,0.100010,-0.250010,-0.199990 /
&OBST ID='Cube_xy_x+0.050_y+0.150' SURF_ID='INERT'
      XB=0.049990,0.200010,0.149990,0.200010,0.149990,0.200010 /
&OBST ID='Cube_xy_x+0.050_y+0.200' SURF_ID='INERT'
      XB=0.049990,0.150010,0.199990,0.250010,-0.050010,0.000010 /
&OBST ID='Cube_xy_x+0.050_y-0.000' SURF_ID='INERT'
      XB=0.049990,0.150010,-0.000010,0.050010,-0.250010,-0.199990 /
&OBST ID='Cube_xy_x+0.100_y+0.050' SURF_ID='INERT'
      XB=0.099990,0.150010,0.049990,0.100010,-0.250010,-0.199990 /
&OBST ID='Cube_xy_x+0.100_y+0.200' SURF_ID='INERT'
      XB=0.099990,0.150010,0.199990,0.250010,-0.000010,0.050010 /
&OBST ID='Cube_xy_x-0.000_y+0.001' SURF_ID='INERT'
      XB=-0.000010,0.200010,0.149990,0.200010,0.099990,0.150010 /
&OBST ID='Cube_xy_x-0.000_y+0.150' SURF_ID='INERT'
      XB=-0.000010,0.100010,0.149990,0.250010,-0.200010,-0.149990 /
&OBST ID='Cube_xy_x-0.000_y-0.100' SURF_ID='INERT'
      XB=-0.000010,0.150010,-0.100010,0.000010,-0.250010,-0.199990 /
&OBST ID='Cube_xy_x-0.050_y+0.050' SURF_ID='INERT'
      XB=-0.050010,0.150010,0.049990,0.150010,-0.200010,-0.149990 /
&OBST ID='Cube_xy_x-0.050_y+0.200' SURF_ID='INERT'
      XB=-0.050010,0.150010,0.199990,0.250010,-0.100010,-0.049990 /
&OBST ID='Cube_xy_x-0.050_y-0.150' SURF_ID='INERT'
      XB=-0.050010,0.150010,-0.150010,-0.099990,-0.250010,-0.199990 /
&OBST ID='Cube_xy_x-0.100_y+0.150' SURF_ID='INERT'
      XB=-0.100010,0.200010,0.149990,0.200010,0.049990,0.100010 /
&OBST ID='Cube_xy_x-0.100_y+0.200' SURF_ID='INERT'
      XB=-0.100010,0.100010,0.199990,0.250010,-0.150010,-0.099990 /
&OBST ID='Cube_xy_x-0.100_y-0.000' SURF_ID='INERT'
      XB=-0.100010,0.150010,-0.000010,0.050010,-0.200010,-0.149990 /
&OBST ID='Cube_xy_x-0.100_y-0.001' SURF_ID='INERT'
      XB=-0.100010,0.000010,-0.250010,-0.149990,0.149990,0.200010 /
&OBST ID='Cube_xy_x-0.100_y-0.250' SURF_ID='INERT'
      XB=-0.100010,0.100010,-0.250010,-0.199990,0.099990,0.150010 /
&OBST ID='Cube_xy_x-0.150_y+0.001' SURF_ID='INERT'
      XB=-0.150010,0.150010,0.149990,0.200010,-0.000010,0.050010 /
&OBST ID='Cube_xy_x-0.150_y+0.100' SURF_ID='INERT'
      XB=-0.150010,0.050010,0.099990,0.150010,0.199990,0.250010 /
&OBST ID='Cube_xy_x-0.150_y+0.150' SURF_ID='INERT'
      XB=-0.150010,0.150010,0.149990,0.200010,-0.150010,-0.099990 /
&OBST ID='Cube_xy_x-0.150_y-0.000' SURF_ID='INERT'
      XB=-0.150010,0.150010,-0.000010,0.050010,0.149990,0.200010 /
&OBST ID='Cube_xy_x-0.150_y-0.001' SURF_ID='INERT'
      XB=-0.150010,0.000010,-0.000010,0.100010,0.199990,0.250010 /
&OBST ID='Cube_xy_x-0.150_y-0.002' SURF_ID='INERT'
      XB=-0.150010,-0.049990,-0.050010,0.000010,0.199990,0.250010 /
&OBST ID='Cube_xy_x-0.150_y-0.003' SURF_ID='INERT'
      XB=-0.150010,0.100010,-0.050010,0.000010,0.149990,0.200010 /
&OBST ID='Cube_xy_x-0.150_y-0.004' SURF_ID='INERT'
      XB=-0.150010,-0.099990,-0.100010,-0.049990,0.199990,0.250010 /
&OBST ID='Cube_xy_x-0.150_y-0.005' SURF_ID='INERT'
      XB=-0.150010,0.250010,-0.100010,0.000010,0.099990,0.150010 /
&OBST ID='Cube_xy_x-0.150_y-0.006' SURF_ID='INERT'
      XB=-0.150010,0.050010,-0.150010,-0.049990,0.149990,0.200010 /
&OBST ID='Cube_xy_x-0.150_y-0.007' SURF_ID='INERT'
      XB=-0.150010,0.200010,-0.150010,-0.099990,0.099990,0.150010 /
&OBST ID='Cube_xy_x-0.150_y-0.008' SURF_ID='INERT'
      XB=-0.150010,0.250010,-0.150010,-0.049990,0.049990,0.100010 /
&OBST ID='Cube_xy_x-0.150_y-0.009' SURF_ID='INERT'
      XB=-0.150010,0.150010,-0.200010,-0.149990,0.099990,0.150010 /
&OBST ID='Cube_xy_x-0.150_y-0.010' SURF_ID='INERT'
      XB=-0.150010,0.300010,-0.200010,-0.149990,0.049990,0.100010 /
&OBST ID='Cube_xy_x-0.150_y-0.011' SURF_ID='INERT'
      XB=-0.150010,0.200010,-0.200010,-0.149990,-0.000010,0.050010 /
&OBST ID='Cube_xy_x-0.150_y-0.012' SURF_ID='INERT'
      XB=-0.150010,0.050010,-0.250010,-0.199990,0.049990,0.100010 /
&OBST ID='Cube_xy_x-0.150_y-0.013' SURF_ID='INERT'
      XB=-0.150010,-0.049990,-0.250010,-0.199990,-0.000010,0.050010 /
&OBST ID='Cube_xy_x-0.150_y-0.050' SURF_ID='INERT'
      XB=-0.150010,0.150010,-0.050010,0.000010,-0.200010,-0.149990 /
&OBST ID='Cube_xy_x-0.150_y-0.100' SURF_ID='INERT'
      XB=-0.150010,0.200010,-0.100010,-0.049990,-0.200010,-0.149990 /
&OBST ID='Cube_xy_x-0.150_y-0.150' SURF_ID='INERT'
      XB=-0.150010,0.250010,-0.150010,-0.099990,-0.000010,0.050010 /
&OBST ID='Cube_xy_x-0.150_y-0.200' SURF_ID='INERT'
      XB=-0.150010,0.150010,-0.200010,-0.149990,-0.050010,0.000010 /
&OBST ID='Cube_xy_x-0.150_y-0.250' SURF_ID='INERT'
      XB=-0.150010,-0.099990,-0.250010,-0.199990,-0.050010,0.000010 /
&OBST ID='Cube_xy_x-0.200_y+0.001' SURF_ID='INERT'
      XB=-0.200010,0.200010,0.099990,0.150010,0.099990,0.200010 /
&OBST ID='Cube_xy_x-0.200_y+0.002' SURF_ID='INERT'
      XB=-0.200010,0.150010,0.049990,0.100010,0.149990,0.200010 /
&OBST ID='Cube_xy_x-0.200_y+0.050' SURF_ID='INERT'
      XB=-0.200010,0.200010,0.049990,0.100010,0.049990,0.100010 /
&OBST ID='Cube_xy_x-0.200_y+0.100' SURF_ID='INERT'
      XB=-0.200010,0.150010,0.099990,0.150010,-0.150010,-0.099990 /
&OBST ID='Cube_xy_x-0.200_y+0.150' SURF_ID='INERT'
      XB=-0.200010,0.150010,0.149990,0.200010,-0.050010,0.000010 /
&OBST ID='Cube_xy_x-0.200_y-0.000' SURF_ID='INERT'
      XB=-0.200010,0.200010,-0.000010,0.050010,-0.000010,0.050010 /
&OBST ID='Cube_xy_x-0.200_y-0.001' SURF_ID='INERT'
      XB=-0.200010,0.250010,-0.000010,0.100010,0.099990,0.150010 /
&OBST ID='Cube_xy_x-0.200_y-0.002' SURF_ID='INERT'
      XB=-0.200010,0.250010,-0.050010,0.050010,0.049990,0.100010 /
&OBST ID='Cube_xy_x-0.200_y-0.003' SURF_ID='INERT'
      XB=-0.200010,0.250010,-0.100010,0.000010,-0.000010,0.050010 /
&OBST ID='Cube_xy_x-0.200_y-0.004' SURF_ID='INERT'
      XB=-0.200010,0.250010,-0.150010,-0.049990,-0.050010,0.000010 /
&OBST ID='Cube_xy_x-0.200_y-0.005' SURF_ID='INERT'
      XB=-0.200010,0.250010,-0.150010,-0.099990,-0.100010,-0.049990 /
&OBST ID='Cube_xy_x-0.200_y-0.006' SURF_ID='INERT'
      XB=-0.200010,0.100010,-0.200010,-0.149990,-0.100010,-0.049990 /
&OBST ID='Cube_xy_x-0.200_y-0.007' SURF_ID='INERT'
      XB=-0.200010,0.000010,-0.200010,-0.149990,-0.150010,-0.099990 /
&OBST ID='Cube_xy_x-0.200_y-0.050' SURF_ID='INERT'
      XB=-0.200010,0.200010,-0.050010,0.000010,-0.050010,0.000010 /
&OBST ID='Cube_xy_x-0.200_y-0.100' SURF_ID='INERT'
      XB=-0.200010,0.200010,-0.100010,-0.049990,-0.100010,-0.049990 /
&OBST ID='Cube_xy_x-0.200_y-0.150' SURF_ID='INERT'
      XB=-0.200010,0.200010,-0.150010,-0.099990,-0.200010,-0.099990 /
&OBST ID='Cube_xy_x-0.200_y-0.200' SURF_ID='INERT'
      XB=-0.200010,-0.049990,-0.200010,-0.149990,-0.200010,-0.149990 /
&OBST ID='Cube_xy_x-0.250_y+0.001' SURF_ID='INERT'
      XB=-0.250010,0.200010,0.099990,0.150010,0.049990,0.100010 /
&OBST ID='Cube_xy_x-0.250_y+0.002' SURF_ID='INERT'
      XB=-0.250010,0.200010,0.049990,0.150010,-0.000010,0.050010 /
&OBST ID='Cube_xy_x-0.250_y+0.050' SURF_ID='INERT'
      XB=-0.250010,0.150010,0.049990,0.150010,-0.100010,-0.049990 /
&OBST ID='Cube_xy_x-0.250_y+0.100' SURF_ID='INERT'
      XB=-0.250010,0.150010,0.099990,0.150010,-0.050010,0.000010 /
&OBST ID='Cube_xy_x-0.250_y-0.000' SURF_ID='INERT'
      XB=-0.250010,0.150010,-0.000010,0.100010,-0.150010,-0.099990 /
&OBST ID='Cube_xy_x-0.250_y-0.001' SURF_ID='INERT'
      XB=-0.250010,0.200010,-0.000010,0.100010,-0.050010,0.000010 /
&OBST ID='Cube_xy_x-0.250_y-0.050' SURF_ID='INERT'
      XB=-0.250010,0.200010,-0.050010,0.050010,-0.100010,-0.049990 /
&OBST ID='Cube_xy_x-0.250_y-0.100' SURF_ID='INERT'
      XB=-0.250010,0.200010,-0.100010,0.000010,-0.150010,-0.099990 /
&OBST ID='Cube_xy_x-0.300_y+0.150' SURF_ID='INERT'
      XB=-0.300010,0.150010,0.149990,0.200010,-0.100010,-0.049990 /
&OBST ID='Cube_xyz_x-0.600_y+0.050_z-0.250' SURF_ID='INERT'
      XB=-0.600010,-0.549990,0.049990,0.100010,-0.250010,-0.199990 /
&OBST ID='Cube_xyz_x-0.600_y+0.200_z-0.000' SURF_ID='INERT'
      XB=-0.600010,-0.549990,0.199990,0.250010,-0.000010,0.050010 /
&OBST ID='Cube_xyz_x-0.650_y+0.150_z+0.150' SURF_ID='INERT'
      XB=-0.650010,-0.499990,0.149990,0.200010,0.149990,0.200010 /
&OBST ID='Cube_xyz_x-0.650_y+0.200_z-0.050' SURF_ID='INERT'
      XB=-0.650010,-0.549990,0.199990,0.250010,-0.050010,0.000010 /
&OBST ID='Cube_xyz_x-0.650_y-0.000_z-0.250' SURF_ID='INERT'
      XB=-0.650010,-0.549990,-0.000010,0.050010,-0.250010,-0.199990 /
&OBST ID='Cube_xyz_x-0.700_y+0.150_z+0.100' SURF_ID='INERT'
      XB=-0.700010,-0.499990,0.149990,0.200010,0.099990,0.150010 /
&OBST ID='Cube_xyz_x-0.700_y+0.150_z-0.200' SURF_ID='INERT'
      XB=-0.700010,-0.599990,0.149990,0.250010,-0.200010,-0.149990 /
&OBST ID='Cube_xyz_x-0.700_y-0.100_z-0.250' SURF_ID='INERT'
      XB=-0.700010,-0.549990,-0.100010,0.000010,-0.250010,-0.199990 /
&OBST ID='Cube_xyz_x-0.750_y+0.050_z-0.200' SURF_ID='INERT'
      XB=-0.750010,-0.549990,0.049990,0.150010,-0.200010,-0.149990 /
&OBST ID='Cube_xyz_x-0.750_y+0.200_z-0.100' SURF_ID='INERT'
      XB=-0.750010,-0.549990,0.199990,0.250010,-0.100010,-0.049990 /
&OBST ID='Cube_xyz_x-0.750_y-0.150_z-0.250' SURF_ID='INERT'
      XB=-0.750010,-0.549990,-0.150010,-0.099990,-0.250010,-0.199990 /
&OBST ID='Cube_xyz_x-0.800_y+0.150_z+0.050' SURF_ID='INERT'
      XB=-0.800010,-0.499990,0.149990,0.200010,0.049990,0.100010 /
&OBST ID='Cube_xyz_x-0.800_y+0.200_z-0.150' SURF_ID='INERT'
      XB=-0.800010,-0.599990,0.199990,0.250010,-0.150010,-0.099990 /
&OBST ID='Cube_xyz_x-0.800_y-0.000_z-0.200' SURF_ID='INERT'
      XB=-0.800010,-0.549990,-0.000010,0.050010,-0.200010,-0.149990 /
&OBST ID='Cube_xyz_x-0.800_y-0.250_z+0.100' SURF_ID='INERT'
      XB=-0.800010,-0.599990,-0.250010,-0.199990,0.099990,0.150010 /
&OBST ID='Cube_xyz_x-0.800_y-0.250_z+0.150' SURF_ID='INERT'
      XB=-0.800010,-0.699990,-0.250010,-0.149990,0.149990,0.200010 /
&OBST ID='Cube_xyz_x-0.850_y+0.100_z+0.200' SURF_ID='INERT'
      XB=-0.850010,-0.649990,0.099990,0.150010,0.199990,0.250010 /
&OBST ID='Cube_xyz_x-0.850_y+0.150_z-0.000' SURF_ID='INERT'
      XB=-0.850010,-0.549990,0.149990,0.200010,-0.000010,0.050010 /
&OBST ID='Cube_xyz_x-0.850_y+0.150_z-0.150' SURF_ID='INERT'
      XB=-0.850010,-0.549990,0.149990,0.200010,-0.150010,-0.099990 /
&OBST ID='Cube_xyz_x-0.850_y-0.000_z+0.150' SURF_ID='INERT'
      XB=-0.850010,-0.549990,-0.000010,0.050010,0.149990,0.200010 /
&OBST ID='Cube_xyz_x-0.850_y-0.000_z+0.200' SURF_ID='INERT'
      XB=-0.850010,-0.699990,-0.000010,0.100010,0.199990,0.250010 /
&OBST ID='Cube_xyz_x-0.850_y-0.050_z+0.150' SURF_ID='INERT'
      XB=-0.850010,-0.599990,-0.050010,0.000010,0.149990,0.200010 /
&OBST ID='Cube_xyz_x-0.850_y-0.050_z+0.200' SURF_ID='INERT'
      XB=-0.850010,-0.749990,-0.050010,0.000010,0.199990,0.250010 /
&OBST ID='Cube_xyz_x-0.850_y-0.050_z-0.200' SURF_ID='INERT'
      XB=-0.850010,-0.549990,-0.050010,0.000010,-0.200010,-0.149990 /
&OBST ID='Cube_xyz_x-0.850_y-0.100_z+0.100' SURF_ID='INERT'
      XB=-0.850010,-0.449990,-0.100010,0.000010,0.099990,0.150010 /
&OBST ID='Cube_xyz_x-0.850_y-0.100_z+0.200' SURF_ID='INERT'
      XB=-0.850010,-0.799990,-0.100010,-0.049990,0.199990,0.250010 /
&OBST ID='Cube_xyz_x-0.850_y-0.100_z-0.200' SURF_ID='INERT'
      XB=-0.850010,-0.499990,-0.100010,-0.049990,-0.200010,-0.149990 /
&OBST ID='Cube_xyz_x-0.850_y-0.150_z+0.050' SURF_ID='INERT'
      XB=-0.850010,-0.449990,-0.150010,-0.049990,0.049990,0.100010 /
&OBST ID='Cube_xyz_x-0.850_y-0.150_z+0.100' SURF_ID='INERT'
      XB=-0.850010,-0.499990,-0.150010,-0.099990,0.099990,0.150010 /
&OBST ID='Cube_xyz_x-0.850_y-0.150_z+0.150' SURF_ID='INERT'
      XB=-0.850010,-0.649990,-0.150010,-0.049990,0.149990,0.200010 /
&OBST ID='Cube_xyz_x-0.850_y-0.150_z-0.000' SURF_ID='INERT'
      XB=-0.850010,-0.449990,-0.150010,-0.099990,-0.000010,0.050010 /
&OBST ID='Cube_xyz_x-0.850_y-0.200_z+0.050' SURF_ID='INERT'
      XB=-0.850010,-0.399990,-0.200010,-0.149990,0.049990,0.100010 /
&OBST ID='Cube_xyz_x-0.850_y-0.200_z+0.100' SURF_ID='INERT'
      XB=-0.850010,-0.549990,-0.200010,-0.149990,0.099990,0.150010 /
&OBST ID='Cube_xyz_x-0.850_y-0.200_z-0.000' SURF_ID='INERT'
      XB=-0.850010,-0.499990,-0.200010,-0.149990,-0.000010,0.050010 /
&OBST ID='Cube_xyz_x-0.850_y-0.200_z-0.050' SURF_ID='INERT'
      XB=-0.850010,-0.549990,-0.200010,-0.149990,-0.050010,0.000010 /
&OBST ID='Cube_xyz_x-0.850_y-0.250_z+0.050' SURF_ID='INERT'
      XB=-0.850010,-0.649990,-0.250010,-0.199990,0.049990,0.100010 /
&OBST ID='Cube_xyz_x-0.850_y-0.250_z-0.000' SURF_ID='INERT'
      XB=-0.850010,-0.749990,-0.250010,-0.199990,-0.000010,0.050010 /
&OBST ID='Cube_xyz_x-0.850_y-0.250_z-0.050' SURF_ID='INERT'
      XB=-0.850010,-0.799990,-0.250010,-0.199990,-0.050010,0.000010 /
&OBST ID='Cube_xyz_x-0.900_y+0.050_z+0.050' SURF_ID='INERT'
      XB=-0.900010,-0.499990,0.049990,0.100010,0.049990,0.100010 /
&OBST ID='Cube_xyz_x-0.900_y+0.050_z+0.150' SURF_ID='INERT'
      XB=-0.900010,-0.549990,0.049990,0.100010,0.149990,0.200010 /
&OBST ID='Cube_xyz_x-0.900_y+0.100_z+0.100' SURF_ID='INERT'
      XB=-0.900010,-0.499990,0.099990,0.150010,0.099990,0.200010 /
&OBST ID='Cube_xyz_x-0.900_y+0.100_z-0.150' SURF_ID='INERT'
      XB=-0.900010,-0.549990,0.099990,0.150010,-0.150010,-0.099990 /
&OBST ID='Cube_xyz_x-0.900_y+0.150_z-0.050' SURF_ID='INERT'
      XB=-0.900010,-0.549990,0.149990,0.200010,-0.050010,0.000010 /
&OBST ID='Cube_xyz_x-0.900_y-0.000_z+0.100' SURF_ID='INERT'
      XB=-0.900010,-0.449990,-0.000010,0.100010,0.099990,0.150010 /
&OBST ID='Cube_xyz_x-0.900_y-0.000_z-0.000' SURF_ID='INERT'
      XB=-0.900010,-0.499990,-0.000010,0.050010,-0.000010,0.050010 /
&OBST ID='Cube_xyz_x-0.900_y-0.050_z+0.050' SURF_ID='INERT'
      XB=-0.900010,-0.449990,-0.050010,0.050010,0.049990,0.100010 /
&OBST ID='Cube_xyz_x-0.900_y-0.050_z-0.050' SURF_ID='INERT'
      XB=-0.900010,-0.499990,-0.050010,0.000010,-0.050010,0.000010 /
&OBST ID='Cube_xyz_x-0.900_y-0.100_z-0.000' SURF_ID='INERT'
      XB=-0.900010,-0.449990,-0.100010,0.000010,-0.000010,0.050010 /
&OBST ID='Cube_xyz_x-0.900_y-0.100_z-0.100' SURF_ID='INERT'
      XB=-0.900010,-0.499990,-0.100010,-0.049990,-0.100010,-0.049990 /
&OBST ID='Cube_xyz_x-0.900_y-0.150_z-0.050' SURF_ID='INERT'
      XB=-0.900010,-0.449990,-0.150010,-0.049990,-0.050010,0.000010 /
&OBST ID='Cube_xyz_x-0.900_y-0.150_z-0.100' SURF_ID='INERT'
      XB=-0.900010,-0.449990,-0.150010,-0.099990,-0.100010,-0.049990 /
&OBST ID='Cube_xyz_x-0.900_y-0.150_z-0.200' SURF_ID='INERT'
      XB=-0.900010,-0.499990,-0.150010,-0.099990,-0.200010,-0.099990 /
&OBST ID='Cube_xyz_x-0.900_y-0.200_z-0.100' SURF_ID='INERT'
      XB=-0.900010,-0.599990,-0.200010,-0.149990,-0.100010,-0.049990 /
&OBST ID='Cube_xyz_x-0.900_y-0.200_z-0.150' SURF_ID='INERT'
      XB=-0.900010,-0.699990,-0.200010,-0.149990,-0.150010,-0.099990 /
&OBST ID='Cube_xyz_x-0.900_y-0.200_z-0.200' SURF_ID='INERT'
      XB=-0.900010,-0.749990,-0.200010,-0.149990,-0.200010,-0.149990 /
&OBST ID='Cube_xyz_x-0.950_y+0.050_z-0.000' SURF_ID='INERT'
      XB=-0.950010,-0.499990,0.049990,0.150010,-0.000010,0.050010 /
&OBST ID='Cube_xyz_x-0.950_y+0.050_z-0.100' SURF_ID='INERT'
      XB=-0.950010,-0.549990,0.049990,0.150010,-0.100010,-0.049990 /
&OBST ID='Cube_xyz_x-0.950_y+0.100_z+0.050' SURF_ID='INERT'
      XB=-0.950010,-0.499990,0.099990,0.150010,0.049990,0.100010 /
&OBST ID='Cube_xyz_x-0.950_y+0.100_z-0.050' SURF_ID='INERT'
      XB=-0.950010,-0.549990,0.099990,0.150010,-0.050010,0.000010 /
&OBST ID='Cube_xyz_x-0.950_y-0.000_z-0.050' SURF_ID='INERT'
      XB=-0.950010,-0.499990,-0.000010,0.100010,-0.050010,0.000010 /
&OBST ID='Cube_xyz_x-0.950_y-0.000_z-0.150' SURF_ID='INERT'
      XB=-0.950010,-0.549990,-0.000010,0.100010,-0.150010,-0.099990 /
&OBST ID='Cube_xyz_x-0.950_y-0.050_z-0.100' SURF_ID='INERT'
      XB=-0.950010,-0.499990,-0.050010,0.050010,-0.100010,-0.049990 /
&OBST ID='Cube_xyz_x-0.950_y-0.100_z-0.150' SURF_ID='INERT'
      XB=-0.950010,-0.499990,-0.100010,0.000010,-0.150010,-0.099990 /
&OBST ID='Cube_xyz_x-1.000_y+0.150_z-0.100' SURF_ID='INERT'
      XB=-1.000010,-0.549990,0.149990,0.200010,-0.100010,-0.049990 /