! Generated by BlenderFDS 6.0.0 on Blender 3.2.0 Beta
! Date: Sat, 21 May 2022, 17:31:08
! File: /tmp/tmperss_v7y/obst_mult.blend

--- Case from Blender Scene: <obst_mult> | View Layer: <ViewLayer>

&HEAD CHID='obst_mult' /
&TIME T_END=0.0 /

--- Boundary conditions from Blender Materials

&SURF ID='Blue bc' RGB=0,0,255 /
&SURF ID='Dark blue bc' RGB=0,0,50 /
&SURF ID='Dark green bc' RGB=0,50,0 /
&SURF ID='Dark red bc' RGB=50,0,0 /
&SURF ID='Green bc' RGB=0,255,0 /
&SURF ID='Red bc' RGB=255,0,0 /

--- Computational domain | MPI Processes: 1 | MESH Qty: 1 | Cell Qty: 1000000

-- MPI Process: <0> | MESH Qty: 1 | Cell Qty: 1000000
Cell Qty: 1000000 | Size: 0.010·0.010·0.010m | Aspect: 1.0 | Poisson: Yes
&MESH ID='Domain' IJK=100,100,100 XB=0.0000,1.0000,0.0000,1.0000,0.0000,1.0000
      MPI_PROCESS=0 /

--- Geometric namelists from Blender Collections

-- Blender Collection: <New Obstacles>
Multiples: 40
&OBST ID='east_0_0' XB=0.8900,0.9000,0.1100,0.8900,0.1000,0.1100
      SURF_ID='Green bc' /
&OBST ID='east_0_1' XB=0.8800,0.8900,0.1200,0.8800,0.1100,0.1200
      SURF_ID='Green bc' /
&OBST ID='east_0_2' XB=0.8700,0.8800,0.1300,0.8700,0.1200,0.1300
      SURF_ID='Green bc' /
&OBST ID='east_0_3' XB=0.8600,0.8700,0.1400,0.8600,0.1300,0.1400
      SURF_ID='Green bc' /
&OBST ID='east_0_4' XB=0.8500,0.8600,0.1500,0.8500,0.1400,0.1500
      SURF_ID='Green bc' /
&OBST ID='east_0_5' XB=0.8400,0.8500,0.1600,0.8400,0.1500,0.1600
      SURF_ID='Green bc' /
&OBST ID='east_0_6' XB=0.8300,0.8400,0.1700,0.8300,0.1600,0.1700
      SURF_ID='Green bc' /
&OBST ID='east_0_7' XB=0.8200,0.8300,0.1800,0.8200,0.1700,0.1800
      SURF_ID='Green bc' /
&OBST ID='east_0_8' XB=0.8100,0.8200,0.1900,0.8100,0.1800,0.1900
      SURF_ID='Green bc' /
&OBST ID='east_0_9' XB=0.8000,0.8100,0.2000,0.8000,0.1900,0.2000
      SURF_ID='Green bc' /
&OBST ID='east_0_10' XB=0.7900,0.8000,0.2100,0.7900,0.2000,0.2100
      SURF_ID='Green bc' /
&OBST ID='east_0_11' XB=0.7800,0.7900,0.2200,0.7800,0.2100,0.2200
      SURF_ID='Green bc' /
&OBST ID='east_0_12' XB=0.7700,0.7800,0.2300,0.7700,0.2200,0.2300
      SURF_ID='Green bc' /
&OBST ID='east_0_13' XB=0.7600,0.7700,0.2400,0.7600,0.2300,0.2400
      SURF_ID='Green bc' /
&OBST ID='east_0_14' XB=0.7500,0.7600,0.2500,0.7500,0.2400,0.2500
      SURF_ID='Green bc' /
&OBST ID='east_0_15' XB=0.7400,0.7500,0.2600,0.7400,0.2500,0.2600
      SURF_ID='Green bc' /
&OBST ID='east_0_16' XB=0.7300,0.7400,0.2700,0.7300,0.2600,0.2700
      SURF_ID='Green bc' /
&OBST ID='east_0_17' XB=0.7200,0.7300,0.2800,0.7200,0.2700,0.2800
      SURF_ID='Green bc' /
&OBST ID='east_0_18' XB=0.7100,0.7200,0.2900,0.7100,0.2800,0.2900
      SURF_ID='Green bc' /
&OBST ID='east_0_19' XB=0.7000,0.7100,0.3000,0.7000,0.2900,0.3000
      SURF_ID='Green bc' /
&OBST ID='east_0_20' XB=0.6900,0.7000,0.3100,0.6900,0.3000,0.3100
      SURF_ID='Green bc' /
&OBST ID='east_0_21' XB=0.6800,0.6900,0.3200,0.6800,0.3100,0.3200
      SURF_ID='Green bc' /
&OBST ID='east_0_22' XB=0.6700,0.6800,0.3300,0.6700,0.3200,0.3300
      SURF_ID='Green bc' /
&OBST ID='east_0_23' XB=0.6600,0.6700,0.3400,0.6600,0.3300,0.3400
      SURF_ID='Green bc' /
&OBST ID='east_0_24' XB=0.6500,0.6600,0.3500,0.6500,0.3400,0.3500
      SURF_ID='Green bc' /
&OBST ID='east_0_25' XB=0.6400,0.6500,0.3600,0.6400,0.3500,0.3600
      SURF_ID='Green bc' /
&OBST ID='east_0_26' XB=0.6300,0.6400,0.3700,0.6300,0.3600,0.3700
      SURF_ID='Green bc' /
&OBST ID='east_0_27' XB=0.6200,0.6300,0.3800,0.6200,0.3700,0.3800
      SURF_ID='Green bc' /
&OBST ID='east_0_28' XB=0.6100,0.6200,0.3900,0.6100,0.3800,0.3900
      SURF_ID='Green bc' /
&OBST ID='east_0_29' XB=0.6000,0.6100,0.4000,0.6000,0.3900,0.4000
      SURF_ID='Green bc' /
&OBST ID='east_0_30' XB=0.5900,0.6000,0.4100,0.5900,0.4000,0.4100
      SURF_ID='Green bc' /
&OBST ID='east_0_31' XB=0.5800,0.5900,0.4200,0.5800,0.4100,0.4200
      SURF_ID='Green bc' /
&OBST ID='east_0_32' XB=0.5700,0.5800,0.4300,0.5700,0.4200,0.4300
      SURF_ID='Green bc' /
&OBST ID='east_0_33' XB=0.5600,0.5700,0.4400,0.5600,0.4300,0.4400
      SURF_ID='Green bc' /
&OBST ID='east_0_34' XB=0.5500,0.5600,0.4500,0.5500,0.4400,0.4500
      SURF_ID='Green bc' /
&OBST ID='east_0_35' XB=0.5400,0.5500,0.4600,0.5400,0.4500,0.4600
      SURF_ID='Green bc' /
&OBST ID='east_0_36' XB=0.5300,0.5400,0.4700,0.5300,0.4600,0.4700
      SURF_ID='Green bc' /
&OBST ID='east_0_37' XB=0.5200,0.5300,0.4800,0.5200,0.4700,0.4800
      SURF_ID='Green bc' /
&OBST ID='east_0_38' XB=0.5100,0.5200,0.4900,0.5100,0.4800,0.4900
      SURF_ID='Green bc' /
&OBST ID='east_0_39' XB=0.5000,0.5100,0.5000,0.5000,0.4900,0.5000
      SURF_ID='Green bc' /
Multiples: 4
&HOLE ID='hole_0_i0_j0_k0' XB=0.4000,0.4500,0.0000,1.0000,0.1500,0.2000 /
&HOLE ID='hole_0_i0_j0_k1' XB=0.4000,0.4500,0.0000,1.0000,0.2500,0.3000 /
&HOLE ID='hole_0_i1_j0_k0' XB=0.5500,0.6000,0.0000,1.0000,0.1500,0.2000 /
&HOLE ID='hole_0_i1_j0_k1' XB=0.5500,0.6000,0.0000,1.0000,0.2500,0.3000 /
Multiples: 40
&OBST ID='north_0_0' XB=0.1000,0.9000,0.8900,0.9000,0.1000,0.1100
      SURF_ID='Red bc' /
&OBST ID='north_0_1' XB=0.1100,0.8900,0.8800,0.8900,0.1100,0.1200
      SURF_ID='Red bc' /
&OBST ID='north_0_2' XB=0.1200,0.8800,0.8700,0.8800,0.1200,0.1300
      SURF_ID='Red bc' /
&OBST ID='north_0_3' XB=0.1300,0.8700,0.8600,0.8700,0.1300,0.1400
      SURF_ID='Red bc' /
&OBST ID='north_0_4' XB=0.1400,0.8600,0.8500,0.8600,0.1400,0.1500
      SURF_ID='Red bc' /
&OBST ID='north_0_5' XB=0.1500,0.8500,0.8400,0.8500,0.1500,0.1600
      SURF_ID='Red bc' /
&OBST ID='north_0_6' XB=0.1600,0.8400,0.8300,0.8400,0.1600,0.1700
      SURF_ID='Red bc' /
&OBST ID='north_0_7' XB=0.1700,0.8300,0.8200,0.8300,0.1700,0.1800
      SURF_ID='Red bc' /
&OBST ID='north_0_8' XB=0.1800,0.8200,0.8100,0.8200,0.1800,0.1900
      SURF_ID='Red bc' /
&OBST ID='north_0_9' XB=0.1900,0.8100,0.8000,0.8100,0.1900,0.2000
      SURF_ID='Red bc' /
&OBST ID='north_0_10' XB=0.2000,0.8000,0.7900,0.8000,0.2000,0.2100
      SURF_ID='Red bc' /
&OBST ID='north_0_11' XB=0.2100,0.7900,0.7800,0.7900,0.2100,0.2200
      SURF_ID='Red bc' /
&OBST ID='north_0_12' XB=0.2200,0.7800,0.7700,0.7800,0.2200,0.2300
      SURF_ID='Red bc' /
&OBST ID='north_0_13' XB=0.2300,0.7700,0.7600,0.7700,0.2300,0.2400
      SURF_ID='Red bc' /
&OBST ID='north_0_14' XB=0.2400,0.7600,0.7500,0.7600,0.2400,0.2500
      SURF_ID='Red bc' /
&OBST ID='north_0_15' XB=0.2500,0.7500,0.7400,0.7500,0.2500,0.2600
      SURF_ID='Red bc' /
&OBST ID='north_0_16' XB=0.2600,0.7400,0.7300,0.7400,0.2600,0.2700
      SURF_ID='Red bc' /
&OBST ID='north_0_17' XB=0.2700,0.7300,0.7200,0.7300,0.2700,0.2800
      SURF_ID='Red bc' /
&OBST ID='north_0_18' XB=0.2800,0.7200,0.7100,0.7200,0.2800,0.2900
      SURF_ID='Red bc' /
&OBST ID='north_0_19' XB=0.2900,0.7100,0.7000,0.7100,0.2900,0.3000
      SURF_ID='Red bc' /
&OBST ID='north_0_20' XB=0.3000,0.7000,0.6900,0.7000,0.3000,0.3100
      SURF_ID='Red bc' /
&OBST ID='north_0_21' XB=0.3100,0.6900,0.6800,0.6900,0.3100,0.3200
      SURF_ID='Red bc' /
&OBST ID='north_0_22' XB=0.3200,0.6800,0.6700,0.6800,0.3200,0.3300
      SURF_ID='Red bc' /
&OBST ID='north_0_23' XB=0.3300,0.6700,0.6600,0.6700,0.3300,0.3400
      SURF_ID='Red bc' /
&OBST ID='north_0_24' XB=0.3400,0.6600,0.6500,0.6600,0.3400,0.3500
      SURF_ID='Red bc' /
&OBST ID='north_0_25' XB=0.3500,0.6500,0.6400,0.6500,0.3500,0.3600
      SURF_ID='Red bc' /
&OBST ID='north_0_26' XB=0.3600,0.6400,0.6300,0.6400,0.3600,0.3700
      SURF_ID='Red bc' /
&OBST ID='north_0_27' XB=0.3700,0.6300,0.6200,0.6300,0.3700,0.3800
      SURF_ID='Red bc' /
&OBST ID='north_0_28' XB=0.3800,0.6200,0.6100,0.6200,0.3800,0.3900
      SURF_ID='Red bc' /
&OBST ID='north_0_29' XB=0.3900,0.6100,0.6000,0.6100,0.3900,0.4000
      SURF_ID='Red bc' /
&OBST ID='north_0_30' XB=0.4000,0.6000,0.5900,0.6000,0.4000,0.4100
      SURF_ID='Red bc' /
&OBST ID='north_0_31' XB=0.4100,0.5900,0.5800,0.5900,0.4100,0.4200
      SURF_ID='Red bc' /
&OBST ID='north_0_32' XB=0.4200,0.5800,0.5700,0.5800,0.4200,0.4300
      SURF_ID='Red bc' /
&OBST ID='north_0_33' XB=0.4300,0.5700,0.5600,0.5700,0.4300,0.4400
      SURF_ID='Red bc' /
&OBST ID='north_0_34' XB=0.4400,0.5600,0.5500,0.5600,0.4400,0.4500
      SURF_ID='Red bc' /
&OBST ID='north_0_35' XB=0.4500,0.5500,0.5400,0.5500,0.4500,0.4600
      SURF_ID='Red bc' /
&OBST ID='north_0_36' XB=0.4600,0.5400,0.5300,0.5400,0.4600,0.4700
      SURF_ID='Red bc' /
&OBST ID='north_0_37' XB=0.4700,0.5300,0.5200,0.5300,0.4700,0.4800
      SURF_ID='Red bc' /
&OBST ID='north_0_38' XB=0.4800,0.5200,0.5100,0.5200,0.4800,0.4900
      SURF_ID='Red bc' /
&OBST ID='north_0_39' XB=0.4900,0.5100,0.5000,0.5100,0.4900,0.5000
      SURF_ID='Red bc' /
Multiples: 40
&OBST ID='south_0_0' XB=0.1000,0.9000,0.1000,0.1100,0.1000,0.1100
      SURF_ID='Dark red bc' /
&OBST ID='south_0_1' XB=0.1100,0.8900,0.1100,0.1200,0.1100,0.1200
      SURF_ID='Dark red bc' /
&OBST ID='south_0_2' XB=0.1200,0.8800,0.1200,0.1300,0.1200,0.1300
      SURF_ID='Dark red bc' /
&OBST ID='south_0_3' XB=0.1300,0.8700,0.1300,0.1400,0.1300,0.1400
      SURF_ID='Dark red bc' /
&OBST ID='south_0_4' XB=0.1400,0.8600,0.1400,0.1500,0.1400,0.1500
      SURF_ID='Dark red bc' /
&OBST ID='south_0_5' XB=0.1500,0.8500,0.1500,0.1600,0.1500,0.1600
      SURF_ID='Dark red bc' /
&OBST ID='south_0_6' XB=0.1600,0.8400,0.1600,0.1700,0.1600,0.1700
      SURF_ID='Dark red bc' /
&OBST ID='south_0_7' XB=0.1700,0.8300,0.1700,0.1800,0.1700,0.1800
      SURF_ID='Dark red bc' /
&OBST ID='south_0_8' XB=0.1800,0.8200,0.1800,0.1900,0.1800,0.1900
      SURF_ID='Dark red bc' /
&OBST ID='south_0_9' XB=0.1900,0.8100,0.1900,0.2000,0.1900,0.2000
      SURF_ID='Dark red bc' /
&OBST ID='south_0_10' XB=0.2000,0.8000,0.2000,0.2100,0.2000,0.2100
      SURF_ID='Dark red bc' /
&OBST ID='south_0_11' XB=0.2100,0.7900,0.2100,0.2200,0.2100,0.2200
      SURF_ID='Dark red bc' /
&OBST ID='south_0_12' XB=0.2200,0.7800,0.2200,0.2300,0.2200,0.2300
      SURF_ID='Dark red bc' /
&OBST ID='south_0_13' XB=0.2300,0.7700,0.2300,0.2400,0.2300,0.2400
      SURF_ID='Dark red bc' /
&OBST ID='south_0_14' XB=0.2400,0.7600,0.2400,0.2500,0.2400,0.2500
      SURF_ID='Dark red bc' /
&OBST ID='south_0_15' XB=0.2500,0.7500,0.2500,0.2600,0.2500,0.2600
      SURF_ID='Dark red bc' /
&OBST ID='south_0_16' XB=0.2600,0.7400,0.2600,0.2700,0.2600,0.2700
      SURF_ID='Dark red bc' /
&OBST ID='south_0_17' XB=0.2700,0.7300,0.2700,0.2800,0.2700,0.2800
      SURF_ID='Dark red bc' /
&OBST ID='south_0_18' XB=0.2800,0.7200,0.2800,0.2900,0.2800,0.2900
      SURF_ID='Dark red bc' /
&OBST ID='south_0_19' XB=0.2900,0.7100,0.2900,0.3000,0.2900,0.3000
      SURF_ID='Dark red bc' /
&OBST ID='south_0_20' XB=0.3000,0.7000,0.3000,0.3100,0.3000,0.3100
      SURF_ID='Dark red bc' /
&OBST ID='south_0_21' XB=0.3100,0.6900,0.3100,0.3200,0.3100,0.3200
      SURF_ID='Dark red bc' /
&OBST ID='south_0_22' XB=0.3200,0.6800,0.3200,0.3300,0.3200,0.3300
      SURF_ID='Dark red bc' /
&OBST ID='south_0_23' XB=0.3300,0.6700,0.3300,0.3400,0.3300,0.3400
      SURF_ID='Dark red bc' /
&OBST ID='south_0_24' XB=0.3400,0.6600,0.3400,0.3500,0.3400,0.3500
      SURF_ID='Dark red bc' /
&OBST ID='south_0_25' XB=0.3500,0.6500,0.3500,0.3600,0.3500,0.3600
      SURF_ID='Dark red bc' /
&OBST ID='south_0_26' XB=0.3600,0.6400,0.3600,0.3700,0.3600,0.3700
      SURF_ID='Dark red bc' /
&OBST ID='south_0_27' XB=0.3700,0.6300,0.3700,0.3800,0.3700,0.3800
      SURF_ID='Dark red bc' /
&OBST ID='south_0_28' XB=0.3800,0.6200,0.3800,0.3900,0.3800,0.3900
      SURF_ID='Dark red bc' /
&OBST ID='south_0_29' XB=0.3900,0.6100,0.3900,0.4000,0.3900,0.4000
      SURF_ID='Dark red bc' /
&OBST ID='south_0_30' XB=0.4000,0.6000,0.4000,0.4100,0.4000,0.4100
      SURF_ID='Dark red bc' /
&OBST ID='south_0_31' XB=0.4100,0.5900,0.4100,0.4200,0.4100,0.4200
      SURF_ID='Dark red bc' /
&OBST ID='south_0_32' XB=0.4200,0.5800,0.4200,0.4300,0.4200,0.4300
      SURF_ID='Dark red bc' /
&OBST ID='south_0_33' XB=0.4300,0.5700,0.4300,0.4400,0.4300,0.4400
      SURF_ID='Dark red bc' /
&OBST ID='south_0_34' XB=0.4400,0.5600,0.4400,0.4500,0.4400,0.4500
      SURF_ID='Dark red bc' /
&OBST ID='south_0_35' XB=0.4500,0.5500,0.4500,0.4600,0.4500,0.4600
      SURF_ID='Dark red bc' /
&OBST ID='south_0_36' XB=0.4600,0.5400,0.4600,0.4700,0.4600,0.4700
      SURF_ID='Dark red bc' /
&OBST ID='south_0_37' XB=0.4700,0.5300,0.4700,0.4800,0.4700,0.4800
      SURF_ID='Dark red bc' /
&OBST ID='south_0_38' XB=0.4800,0.5200,0.4800,0.4900,0.4800,0.4900
      SURF_ID='Dark red bc' /
&OBST ID='south_0_39' XB=0.4900,0.5100,0.4900,0.5000,0.4900,0.5000
      SURF_ID='Dark red bc' /
Multiples: 40
&OBST ID='west_0_0' XB=0.1000,0.1100,0.1100,0.8900,0.1000,0.1100
      SURF_ID='Dark green bc' /
&OBST ID='west_0_1' XB=0.1100,0.1200,0.1200,0.8800,0.1100,0.1200
      SURF_ID='Dark green bc' /
&OBST ID='west_0_2' XB=0.1200,0.1300,0.1300,0.8700,0.1200,0.1300
      SURF_ID='Dark green bc' /
&OBST ID='west_0_3' XB=0.1300,0.1400,0.1400,0.8600,0.1300,0.1400
      SURF_ID='Dark green bc' /
&OBST ID='west_0_4' XB=0.1400,0.1500,0.1500,0.8500,0.1400,0.1500
      SURF_ID='Dark green bc' /
&OBST ID='west_0_5' XB=0.1500,0.1600,0.1600,0.8400,0.1500,0.1600
      SURF_ID='Dark green bc' /
&OBST ID='west_0_6' XB=0.1600,0.1700,0.1700,0.8300,0.1600,0.1700
      SURF_ID='Dark green bc' /
&OBST ID='west_0_7' XB=0.1700,0.1800,0.1800,0.8200,0.1700,0.1800
      SURF_ID='Dark green bc' /
&OBST ID='west_0_8' XB=0.1800,0.1900,0.1900,0.8100,0.1800,0.1900
      SURF_ID='Dark green bc' /
&OBST ID='west_0_9' XB=0.1900,0.2000,0.2000,0.8000,0.1900,0.2000
      SURF_ID='Dark green bc' /
&OBST ID='west_0_10' XB=0.2000,0.2100,0.2100,0.7900,0.2000,0.2100
      SURF_ID='Dark green bc' /
&OBST ID='west_0_11' XB=0.2100,0.2200,0.2200,0.7800,0.2100,0.2200
      SURF_ID='Dark green bc' /
&OBST ID='west_0_12' XB=0.2200,0.2300,0.2300,0.7700,0.2200,0.2300
      SURF_ID='Dark green bc' /
&OBST ID='west_0_13' XB=0.2300,0.2400,0.2400,0.7600,0.2300,0.2400
      SURF_ID='Dark green bc' /
&OBST ID='west_0_14' XB=0.2400,0.2500,0.2500,0.7500,0.2400,0.2500
      SURF_ID='Dark green bc' /
&OBST ID='west_0_15' XB=0.2500,0.2600,0.2600,0.7400,0.2500,0.2600
      SURF_ID='Dark green bc' /
&OBST ID='west_0_16' XB=0.2600,0.2700,0.2700,0.7300,0.2600,0.2700
      SURF_ID='Dark green bc' /
&OBST ID='west_0_17' XB=0.2700,0.2800,0.2800,0.7200,0.2700,0.2800
      SURF_ID='Dark green bc' /
&OBST ID='west_0_18' XB=0.2800,0.2900,0.2900,0.7100,0.2800,0.2900
      SURF_ID='Dark green bc' /
&OBST ID='west_0_19' XB=0.2900,0.3000,0.3000,0.7000,0.2900,0.3000
      SURF_ID='Dark green bc' /
&OBST ID='west_0_20' XB=0.3000,0.3100,0.3100,0.6900,0.3000,0.3100
      SURF_ID='Dark green bc' /
&OBST ID='west_0_21' XB=0.3100,0.3200,0.3200,0.6800,0.3100,0.3200
      SURF_ID='Dark green bc' /
&OBST ID='west_0_22' XB=0.3200,0.3300,0.3300,0.6700,0.3200,0.3300
      SURF_ID='Dark green bc' /
&OBST ID='west_0_23' XB=0.3300,0.3400,0.3400,0.6600,0.3300,0.3400
      SURF_ID='Dark green bc' /
&OBST ID='west_0_24' XB=0.3400,0.3500,0.3500,0.6500,0.3400,0.3500
      SURF_ID='Dark green bc' /
&OBST ID='west_0_25' XB=0.3500,0.3600,0.3600,0.6400,0.3500,0.3600
      SURF_ID='Dark green bc' /
&OBST ID='west_0_26' XB=0.3600,0.3700,0.3700,0.6300,0.3600,0.3700
      SURF_ID='Dark green bc' /
&OBST ID='west_0_27' XB=0.3700,0.3800,0.3800,0.6200,0.3700,0.3800
      SURF_ID='Dark green bc' /
&OBST ID='west_0_28' XB=0.3800,0.3900,0.3900,0.6100,0.3800,0.3900
      SURF_ID='Dark green bc' /
&OBST ID='west_0_29' XB=0.3900,0.4000,0.4000,0.6000,0.3900,0.4000
      SURF_ID='Dark green bc' /
&OBST ID='west_0_30' XB=0.4000,0.4100,0.4100,0.5900,0.4000,0.4100
      SURF_ID='Dark green bc' /
&OBST ID='west_0_31' XB=0.4100,0.4200,0.4200,0.5800,0.4100,0.4200
      SURF_ID='Dark green bc' /
&OBST ID='west_0_32' XB=0.4200,0.4300,0.4300,0.5700,0.4200,0.4300
      SURF_ID='Dark green bc' /
&OBST ID='west_0_33' XB=0.4300,0.4400,0.4400,0.5600,0.4300,0.4400
      SURF_ID='Dark green bc' /
&OBST ID='west_0_34' XB=0.4400,0.4500,0.4500,0.5500,0.4400,0.4500
      SURF_ID='Dark green bc' /
&OBST ID='west_0_35' XB=0.4500,0.4600,0.4600,0.5400,0.4500,0.4600
      SURF_ID='Dark green bc' /
&OBST ID='west_0_36' XB=0.4600,0.4700,0.4700,0.5300,0.4600,0.4700
      SURF_ID='Dark green bc' /
&OBST ID='west_0_37' XB=0.4700,0.4800,0.4800,0.5200,0.4700,0.4800
      SURF_ID='Dark green bc' /
&OBST ID='west_0_38' XB=0.4800,0.4900,0.4900,0.5100,0.4800,0.4900
      SURF_ID='Dark green bc' /
&OBST ID='west_0_39' XB=0.4900,0.5000,0.5000,0.5000,0.4900,0.5000
      SURF_ID='Dark green bc' /

&TAIL /
