!!! Generated by BlenderFDS 6.0.0 on Blender 3.0.0
!!! Date: <dom, 09 gen 2022, 17:52:57>
!!! File: <...lenderfds.verification/tests/bf_mesh_export/bl/MESH.blend>
! --- Case from Blender Scene <split_mesh>
&HEAD CHID='split_mesh' TITLE='This is an example case' /
&TIME T_END=1.0 /
&REAC ID='Example' FUEL='PROPANE' CO_YIELD=0.010 SOOT_YIELD=0.020
      HEAT_OF_COMBUSTION=46420.0 /

! --- Boundary conditions from related Blender Materials
&SURF ID='Burner bc' RGB=255,0,0 /
&SURF ID='Material bc' RGB=204,166,111 /
 
! --- Geometric namelists from Blender Collection <Scene Collection>
! --- Geometric namelists from Blender Collection <Collection>
&VENT ID='Burner' SURF_ID='Burner bc'
      XB=-1.000000,1.000000,-1.000000,1.000000,2.001000,2.001000 /
&OBST ID='Cube' SURF_ID='Material bc'
      XB=-1.000000,1.000000,-1.000000,1.000000,0.000000,2.000000 /
! MESH Cell Qty: 1848 / 12 splits
! Cell Size: 0.364m x 0.333m x 0.286m | Aspect: 1.3 | Poisson: No
&MESH ID='Domain_0' IJK=6,6,5
      XB=-2.000000,0.181818,-2.000000,0.000000,0.000000,1.428571 /
&MESH ID='Domain_1' IJK=6,6,5
      XB=-2.000000,0.181818,-2.000000,0.000000,1.428571,2.857143 /
&MESH ID='Domain_2' IJK=6,6,4
      XB=-2.000000,0.181818,-2.000000,0.000000,2.857143,4.000000 /
&MESH ID='Domain_3' IJK=6,6,5
      XB=-2.000000,0.181818,0.000000,2.000000,0.000000,1.428571 /
&MESH ID='Domain_4' IJK=6,6,5
      XB=-2.000000,0.181818,0.000000,2.000000,1.428571,2.857143 /
&MESH ID='Domain_5' IJK=6,6,4
      XB=-2.000000,0.181818,0.000000,2.000000,2.857143,4.000000 /
&MESH ID='Domain_6' IJK=5,6,5
      XB=0.181818,2.000000,-2.000000,0.000000,0.000000,1.428571 /
&MESH ID='Domain_7' IJK=5,6,5
      XB=0.181818,2.000000,-2.000000,0.000000,1.428571,2.857143 /
&MESH ID='Domain_8' IJK=5,6,4
      XB=0.181818,2.000000,-2.000000,0.000000,2.857143,4.000000 /
&MESH ID='Domain_9' IJK=5,6,5
      XB=0.181818,2.000000,0.000000,2.000000,0.000000,1.428571 /
&MESH ID='Domain_10' IJK=5,6,5
      XB=0.181818,2.000000,0.000000,2.000000,1.428571,2.857143 /
&MESH ID='Domain_11' IJK=5,6,4
      XB=0.181818,2.000000,0.000000,2.000000,2.857143,4.000000 /
! PB* Planes: 5
&VENT ID='Domain bcs_0' PBX=-2.000000 SURF_ID='OPEN' /
&VENT ID='Domain bcs_1' PBX=2.000000 SURF_ID='OPEN' /
&VENT ID='Domain bcs_2' PBY=-2.000000 SURF_ID='OPEN' /
&VENT ID='Domain bcs_3' PBY=2.000000 SURF_ID='OPEN' /
&VENT ID='Domain bcs_4' PBZ=4.000000 SURF_ID='OPEN' /
&SLCF ID='Temp slice' QUANTITY='TEMPERATURE' VECTOR=T CELL_CENTERED=T
      PBX=0.000000 /

&TAIL /
 