!!! Generated by BlenderFDS 6.0.0 on Blender 3.0.0
!!! Date: <mar, 11 gen 2022, 16:50:38>
!!! File: <...cation/tests/bf_geometry_to_fds/bl/terrain_geometry.blend>
! --- Case from Blender Scene <geom_terrain_extend> and View Layer <View Layer>
&HEAD CHID='geom_terrain_extend' TITLE='Test simple geom' /
&TIME T_END=1.0 /

! --- Boundary conditions from Blender Materials
&SURF ID='Material_blue' RGB=0,16,204 /
&SURF ID='Material_red' RGB=255,0,0 /

! --- Geometric namelists from Blender Collections
! MESH Cell Qty: 8000
! Cell Size: 0.100m · 0.100m · 0.100m | Aspect: 1.0 | Poisson: Yes
&MESH ID='Domain' IJK=20,20,20
      XB=-1.000000,1.000000,-1.000000,1.000000,-1.000000,1.000000 /
! GEOM Vertices: 45 | Faces: 51
&GEOM ID='Terrain_extend' SURF_ID='INERT','Material_red','Material_blue'
      IS_TERRAIN=T EXTEND_TERRAIN=T
      VERTS=0.000000,-0.500000,-0.500000,-0.500000,0.500000,-0.500000,0.000000,
        0.000000,0.500000,0.500000,0.500000,-0.500000,0.725607,-0.500000,
        -0.500000,0.725607,0.500000,-0.500000,-0.744178,-0.500000,-0.500000,
        -0.744178,0.500000,-0.500000,0.000000,-0.733691,-0.500000,0.725607,
        -0.733691,-0.500000,-0.744178,-0.733691,-0.500000,-0.500000,0.705110,
        -0.500000,0.500000,0.705110,-0.500000,0.725607,0.705110,-0.500000,
        -0.744178,0.705110,-0.500000
      FACES=3,2,1,1,4,2,3,2,1,4,3,3,4,1,5,2,2,7,1,1,7,9,1,1,5,1,9,2,2,15,8,1,4,
        6,14,2,4,12,2,2,4,5,6,2,2,8,7,1,7,11,9,1,5,9,10,2,2,12,15,1,4,14,13,2,4,
        13,12,2 /

&TAIL /
 