!!! Generated by BlenderFDS 6.0.0 on Blender 3.0.0
!!! Date: <lun, 10 gen 2022, 16:27:01>
!!! File: <...tests/blender_geometry_to_fds/bl/xb_xyz_pb_geometry.blend>
! --- Case from Blender Scene <xyz_center>
&HEAD CHID='xyz_center' TITLE='Test centers' /
&TIME T_END=1.0 /
 
! --- Geometric namelists from Blender Collection <Scene Collection>
! MESH Cell Qty: 1000
! Cell Size: 0.100m · 0.100m · 0.100m | Aspect: 1.0 | Poisson: Yes
&MESH ID='Domain_small' IJK=10,10,10
      XB=-0.500000,0.500000,-0.500000,0.500000,-0.500000,0.500000 /
&DEVC ID='c11' QUANTITY='TEMPERATURE' XYZ=0.394,0.394,0.000 /
&DEVC ID='c12' QUANTITY='TEMPERATURE' XYZ=0.394,0.044,0.000 /
&DEVC ID='c13' QUANTITY='TEMPERATURE' XYZ=0.394,-0.306,0.000 /
&DEVC ID='c21' QUANTITY='TEMPERATURE' XYZ=0.044,0.394,0.000 /
&DEVC ID='c22' QUANTITY='TEMPERATURE' XYZ=0.044,0.044,0.000 /
&DEVC ID='c23' QUANTITY='TEMPERATURE' XYZ=0.044,-0.306,0.000 /
&DEVC ID='c31' QUANTITY='TEMPERATURE' XYZ=-0.306,0.394,0.000 /
&DEVC ID='c32' QUANTITY='TEMPERATURE' XYZ=-0.306,0.044,0.000 /

&TAIL /
 