! Generated by BlenderFDS 6.0.0 on Blender 3.2.0 Beta
! Date: Sun, 22 May 2022, 15:25:01
! File: ···ds.verification/tests/old_file_format/./bl/test old DEVC params.blend

--- Case from Blender Scene: <Example_case> | View Layer: <View Layer>

&HEAD CHID='Example_case' TITLE='This is an example case' /
&TIME T_END=120.0 /
&REAC FUEL='PROPANE' /

--- Free text from Blender Text: <Text>

Insert here other non-geometrical namelists
&BNDF QUANTITY='WALL TEMPERATURE' /
&BNDF QUANTITY='BURNING RATE' /

--- Boundary conditions from Blender Materials

&SURF ID='Example bc' RGB=204,166,111 /

--- Computational domain | MPI Processes: 1 | MESH Qty: 3 | Cell Qty: 8000

-- MPI Process: <0> | MESH Qty: 3 | Cell Qty: 8000
Cell Qty: 2800 | Size: 0.200·0.200·0.200m | Aspect: 1.0 | Poisson: Yes
&MESH ID='Domain_s0' IJK=20,20,7 XB=-2.0000,2.0000,-2.0000,2.0000,0.0000,1.4000
      MPI_PROCESS=0 /
Cell Qty: 2800 | Size: 0.200·0.200·0.200m | Aspect: 1.0 | Poisson: Yes
&MESH ID='Domain_s1' IJK=20,20,7 XB=-2.0000,2.0000,-2.0000,2.0000,1.4000,2.8000
      MPI_PROCESS=0 /
Cell Qty: 2400 | Size: 0.200·0.200·0.200m | Aspect: 1.0 | Poisson: Yes
&MESH ID='Domain_s2' IJK=20,20,6 XB=-2.0000,2.0000,-2.0000,2.0000,2.8000,4.0000
      MPI_PROCESS=0 /

--- Geometric namelists from Blender Collections

-- Blender Collection: <Domain>
PB* Planes: 5
&VENT ID='Domain bcs_0' PBX=-2.0000 SURF_ID='OPEN' /
&VENT ID='Domain bcs_1' PBX=2.0000 SURF_ID='OPEN' /
&VENT ID='Domain bcs_2' PBY=-2.0000 SURF_ID='OPEN' /
&VENT ID='Domain bcs_3' PBY=2.0000 SURF_ID='OPEN' /
&VENT ID='Domain bcs_4' PBZ=4.0000 SURF_ID='OPEN' /

-- Blender Collection: <Obstacles>
XYZ Vertices: 8
&DEVC ID='Cube_0' XYZ=-1.0000,-1.0000,0.0000 QUANTITY='TEMPERATURE'
      SETPOINT=100.000 INITIAL_STATE=T LATCH=T /
&DEVC ID='Cube_1' XYZ=-1.0000,-1.0000,2.0000 QUANTITY='TEMPERATURE'
      SETPOINT=100.000 INITIAL_STATE=T LATCH=T /
&DEVC ID='Cube_2' XYZ=-1.0000,1.0000,0.0000 QUANTITY='TEMPERATURE'
      SETPOINT=100.000 INITIAL_STATE=T LATCH=T /
&DEVC ID='Cube_3' XYZ=-1.0000,1.0000,2.0000 QUANTITY='TEMPERATURE'
      SETPOINT=100.000 INITIAL_STATE=T LATCH=T /
&DEVC ID='Cube_4' XYZ=1.0000,-1.0000,0.0000 QUANTITY='TEMPERATURE'
      SETPOINT=100.000 INITIAL_STATE=T LATCH=T /
&DEVC ID='Cube_5' XYZ=1.0000,-1.0000,2.0000 QUANTITY='TEMPERATURE'
      SETPOINT=100.000 INITIAL_STATE=T LATCH=T /
&DEVC ID='Cube_6' XYZ=1.0000,1.0000,0.0000 QUANTITY='TEMPERATURE'
      SETPOINT=100.000 INITIAL_STATE=T LATCH=T /
&DEVC ID='Cube_7' XYZ=1.0000,1.0000,2.0000 QUANTITY='TEMPERATURE'
      SETPOINT=100.000 INITIAL_STATE=T LATCH=T /
XYZ Vertices: 8
&DEVC ID='Cube.001_0' XYZ=2.0000,-1.0000,0.0000 QUANTITY='TEMPERATURE' /
&DEVC ID='Cube.001_1' XYZ=2.0000,-1.0000,2.0000 QUANTITY='TEMPERATURE' /
&DEVC ID='Cube.001_2' XYZ=2.0000,1.0000,0.0000 QUANTITY='TEMPERATURE' /
&DEVC ID='Cube.001_3' XYZ=2.0000,1.0000,2.0000 QUANTITY='TEMPERATURE' /
&DEVC ID='Cube.001_4' XYZ=4.0000,-1.0000,0.0000 QUANTITY='TEMPERATURE' /
&DEVC ID='Cube.001_5' XYZ=4.0000,-1.0000,2.0000 QUANTITY='TEMPERATURE' /
&DEVC ID='Cube.001_6' XYZ=4.0000,1.0000,0.0000 QUANTITY='TEMPERATURE' /
&DEVC ID='Cube.001_7' XYZ=4.0000,1.0000,2.0000 QUANTITY='TEMPERATURE' /

-- Blender Collection: <Output>
&SLCF ID='Temp slice' QUANTITY='TEMPERATURE' VECTOR=T CELL_CENTERED=T PBX=0.0000 /

&TAIL /
