! Generated by BlenderFDS 6.0.0 on Blender 3.2.0 Beta
! Date: Thu, 23 Jun 2022, 10:49:31
! File: /tmp/tmpquz1p_is/hrrpuv_reac_series.blend

--- Case from Blender Scene: <hrrpuv_reac_series> | View Layer: <ViewLayer>

&HEAD CHID='hrrpuv_reac_series'
      TITLE='Test of HRRPUV REAC output, series reactions' /
&TIME T_END=0.1 /
&MISC SUPPRESSION=F /

--- Free text from Blender Text: <New Free Text>

-- From: <hrrpuv_reac_series.fds>
REAC: 3 reactions
&REAC ID='R1' FUEL='PROPANE'
      SPEC_ID_NU='PROPANE','OXYGEN','CARBON MONOXIDE','HYDROGEN' NU=-1,-1.5,3,4 /
&REAC ID='R2' FUEL='CARBON MONOXIDE'
      SPEC_ID_NU='CARBON MONOXIDE','OXYGEN','CARBON DIOXIDE' NU=-1,-0.5,1 /
&REAC ID='R3' FUEL='HYDROGEN' SPEC_ID_NU='HYDROGEN','OXYGEN','WATER VAPOR'
      NU=-1,-0.5,1 /
&SPEC ID='NITROGEN' BACKGROUND=T /
&SPEC ID='PROPANE' /
&SPEC ID='OXYGEN' /
&SPEC ID='HYDROGEN' /
&SPEC ID='WATER VAPOR' /
&SPEC ID='CARBON DIOXIDE' /
&SPEC ID='CARBON MONOXIDE' /

--- Boundary conditions from Blender Materials

&SURF ID='COFLOW SLOT' RGB=0,0,255 MASS_FLUX(1)=0.0504 TAU_MF(1)=0.01
      SPEC_ID(1)='OXYGEN' MASS_FLUX(2)=0.1896 TAU_MF(2)=0.01
      SPEC_ID(2)='NITROGEN' /
&SURF ID='FUEL SLOT' RGB=255,0,0 MASS_FLUX(1)=0.0200 TAU_MF(1)=0.01
      SPEC_ID(1)='PROPANE' /

--- Computational domain | MPI Processes: 1 | MESH Qty: 1 | Cell Qty: 100000

-- MPI Process: <0> | MESH Qty: 1 | Cell Qty: 100000
Cell Qty: 100000 | Size: 0.017·0.019·0.020m | Aspect: 1.1 | Poisson: Yes
&MESH ID='New MESH' IJK=40,50,50 XB=-0.350,0.350,-0.475,0.475,-0.030,0.970
      MPI_PROCESS=0 /

--- Geometric namelists from Blender Collections

-- Blender Collection: <New Obstacles from <hrrpuv_reac_series.fds>>
&OBST ID='New OBST' XB=-0.025,0.025,-0.250,0.250,-0.030,0.000
      SURF_IDS='FUEL SLOT','INERT','INERT' /
&OBST ID='New OBST.001' XB=-0.250,0.250,-0.375,0.375,-0.030,-0.020
      SURF_IDS='COFLOW SLOT','INERT','INERT' /
&OBST ID='New OBST.002' SURF_ID='INERT'
      XB=-0.075,0.075,-0.300,0.300,-0.030,-0.010 /
&OBST ID='New OBST.003' SURF_ID='INERT'
      XB=-0.350,-0.250,-0.475,0.475,-0.030,0.000 /
&OBST ID='New OBST.004' SURF_ID='INERT' XB=0.250,0.350,-0.475,0.475,-0.030,0.000 /
&OBST ID='New OBST.005' SURF_ID='INERT' XB=-0.250,0.250,0.375,0.475,-0.030,0.000 /
&OBST ID='New OBST.006' SURF_ID='INERT'
      XB=-0.250,0.250,-0.475,-0.375,-0.030,0.000 /
&VENT ID='New VENT' SURF_ID='OPEN' MB='XMIN' /
&VENT ID='New VENT.001' SURF_ID='OPEN' MB='XMAX' /
&VENT ID='New VENT.002' SURF_ID='OPEN' MB='YMIN' /
&VENT ID='New VENT.003' SURF_ID='OPEN' MB='YMAX' /
&VENT ID='New VENT.004' SURF_ID='OPEN' MB='ZMIN' /
&VENT ID='New VENT.005' SURF_ID='OPEN' MB='ZMAX' /

-- Blender Collection: <New Output from <hrrpuv_reac_series.fds>>
&SLCF ID='New SLCF' QUANTITY='VELOCITY' VECTOR=T PBY=0.000 /
&SLCF ID='New SLCF.001' QUANTITY='TEMPERATURE' CELL_CENTERED=T PBY=0.000 /
&SLCF ID='New SLCF.002' QUANTITY='HRRPUV' CELL_CENTERED=T PBY=0.000 /
&SLCF ID='New SLCF.003' QUANTITY='HRRPUV REAC' CELL_CENTERED=T PBY=0.000
      REAC_ID='R1' /
&SLCF ID='New SLCF.004' QUANTITY='HRRPUV REAC' CELL_CENTERED=T PBY=0.000
      REAC_ID='R2' /
&SLCF ID='New SLCF.005' QUANTITY='HRRPUV REAC' CELL_CENTERED=T PBY=0.000
      REAC_ID='R3' /
&DEVC ID='hrrpuv' QUANTITY='HRRPUV' XYZ=0.000,0.000,0.100 TIME_AVERAGED=F /
&DEVC ID='q1' QUANTITY='HRRPUV REAC' XYZ=0.000,0.000,0.100 REAC_ID='R1'
      TIME_AVERAGED=F /
&DEVC ID='q2' QUANTITY='HRRPUV REAC' XYZ=0.000,0.000,0.100 REAC_ID='R2'
      TIME_AVERAGED=F /
&DEVC ID='q3' QUANTITY='HRRPUV REAC' XYZ=0.000,0.000,0.100 REAC_ID='R3'
      TIME_AVERAGED=F /

&TAIL /
