!!! Generated by BlenderFDS 6.0.0 on Blender 3.0.0
!!! Date: <lun, 10 gen 2022, 16:27:00>
!!! File: <...tests/blender_geometry_to_fds/bl/xb_xyz_pb_geometry.blend>
! --- Case from Blender Scene <xb_faces_plane_solidify>
&HEAD CHID='xb_faces_plane_solidify' TITLE='Test faces w solidified plane' /
&TIME T_END=1.0 /
 
! --- Geometric namelists from Blender Collection <Scene Collection>
! MESH Cell Qty: 8000
! Cell Size: 0.100m · 0.100m · 0.100m | Aspect: 1.0 | Poisson: Yes
&MESH ID='Domain' IJK=20,20,20
      XB=-1.000000,1.000000,-1.000000,1.000000,-1.000000,1.000000 /
! XB Faces: 6
&DEVC QUANTITY='MASS FLOW' INITIAL_STATE=T ID='Plane_faces_0'
      XB=-0.221799,0.716069,-0.242462,1.373128,-0.767063,-0.767063 /
&DEVC QUANTITY='MASS FLOW' INITIAL_STATE=T ID='Plane_faces_1'
      XB=-0.221799,1.456888,1.783009,1.783009,-1.241190,-0.308810 /
&DEVC QUANTITY='MASS FLOW' INITIAL_STATE=T ID='Plane_faces_2'
      XB=-0.221799,2.048841,-0.192890,2.242462,-1.233253,-1.233253 /
&DEVC QUANTITY='MASS FLOW' INITIAL_STATE=T ID='Plane_faces_3'
      XB=-0.048841,2.221799,-0.242462,2.192890,-0.766747,-0.766747 /
&DEVC QUANTITY='MASS FLOW' INITIAL_STATE=T ID='Plane_faces_4'
      XB=0.543112,2.221799,0.216991,0.216991,-1.691190,-0.758810 /
&DEVC QUANTITY='MASS FLOW' INITIAL_STATE=T ID='Plane_faces_5'
      XB=1.283931,2.221799,0.626872,2.242462,-1.232937,-1.232937 /

&TAIL /
 