! Generated by BlenderFDS 6.0.0 on Blender 3.2.0 Beta
! Date: Fri, 27 May 2022, 18:11:46
! File: ···lenderfds.verification/tests/View_Layer_export/bl/view_layer_1M.blend

--- Case from Blender Scene: <view_layer_test> | View Layer: <VL 1 MESH>

&HEAD CHID='view_layer_test' TITLE='Testing view layer selection of collections' /
&TIME T_END=1.0 /
&REAC FUEL='PROPANE' CO_YIELD=0.010 SOOT_YIELD=0.020 HEAT_OF_COMBUSTION=46420.0 /

--- Free text from Blender Text: <Text>

Insert here other non-geometrical namelists
&BNDF QUANTITY='WALL TEMPERATURE' /
&BNDF QUANTITY='BURNING RATE' /

--- Boundary conditions from Blender Materials

&SURF ID='Burner bc' RGB=255,0,0 HRRPUA=500.0 TAU_Q=1.0 /
&SURF ID='Material bc' RGB=204,166,111 /

--- Computational domain | MPI Processes: 1 | MESH Qty: 1 | Cell Qty: 8000

-- MPI Process: <0> | MESH Qty: 1 | Cell Qty: 8000
Cell Qty: 8000 | Size: 0.200·0.200·0.200m | Aspect: 1.0 | Poisson: Yes
&MESH ID='Domain 1M' IJK=20,20,20 XB=-2.0000,2.0000,-2.0000,2.0000,0.0000,4.0000
      MPI_PROCESS=0 /

--- Geometric namelists from Blender Collections

-- Blender Collection: <Domain 1 MESH>
PB* Planes: 5
&VENT ID='Domain bcs_0' PBX=-2.0000 SURF_ID='OPEN' /
&VENT ID='Domain bcs_1' PBX=2.0000 SURF_ID='OPEN' /
&VENT ID='Domain bcs_2' PBY=-2.0000 SURF_ID='OPEN' /
&VENT ID='Domain bcs_3' PBY=2.0000 SURF_ID='OPEN' /
&VENT ID='Domain bcs_4' PBZ=4.0000 SURF_ID='OPEN' /

-- Blender Collection: <Burner>
&VENT ID='Burner' SURF_ID='Burner bc'
      XB=-1.0000,1.0000,-1.0000,1.0000,2.0100,2.0100 /
&OBST ID='Cube' SURF_ID='Material bc'
      XB=-1.0000,1.0000,-1.0000,1.0000,0.0000,2.0000 /

-- Blender Collection: <Other solids>
&OBST ID='Cube small' SURF_ID='Material bc'
      XB=0.0439,1.3406,0.4528,1.7495,0.3517,1.6483 /

-- Blender Collection: <Output>
&SLCF ID='Temp slice' QUANTITY='TEMPERATURE' VECTOR=T CELL_CENTERED=T PBX=0.0000 /

&TAIL /
