!!! Generated by BlenderFDS 6.0.0 on Blender 3.0.0
!!! Date: <mar, 11 gen 2022, 16:12:24>
!!! File: <...tion/tests/bf_geometry_to_fds/bl/xb_xyz_pb_geometry.blend>
! --- Case from Blender Scene <xb_pixels_flat_centered> and View Layer <View Layer>
&HEAD CHID='xb_pixels_flat_centered' TITLE='Test pixel centering' /
&TIME T_END=1.0 /

! --- Boundary conditions from Blender Materials
&SURF ID='Material_red' RGB=255,0,0 /

! --- Geometric namelists from Blender Collections
&OBST ID='Base' SURF_ID='INERT'
      XB=-1.000000,1.000000,-1.000000,1.000000,-1.000000,-0.500000 /
! XB Pixels: 3 | Resolution: 0.100 m
&VENT SURF_ID='Material_red' ID='Circle_0'
      XB=-0.700010,-0.099990,0.699990,0.800010,-0.490000,-0.490000 /
&VENT SURF_ID='Material_red' ID='Circle_1'
      XB=-0.800010,0.000010,0.099990,0.700010,-0.490000,-0.490000 /
&VENT SURF_ID='Material_red' ID='Circle_2'
      XB=-0.700010,-0.099990,-0.000010,0.100010,-0.490000,-0.490000 /
! XB Pixels: 5 | Resolution: 0.100 m
&VENT SURF_ID='Material_red' ID='Circle pixel centered_0'
      XB=0.149990,0.650010,0.749990,0.850010,-0.490000,-0.490000 /
&VENT SURF_ID='Material_red' ID='Circle pixel centered_1'
      XB=0.049990,0.750010,0.649990,0.750010,-0.490000,-0.490000 /
&VENT SURF_ID='Material_red' ID='Circle pixel centered_2'
      XB=-0.050010,0.850010,0.149990,0.650010,-0.490000,-0.490000 /
&VENT SURF_ID='Material_red' ID='Circle pixel centered_3'
      XB=0.049990,0.750010,0.049990,0.150010,-0.490000,-0.490000 /
&VENT SURF_ID='Material_red' ID='Circle pixel centered_4'
      XB=0.149990,0.650010,-0.050010,0.050010,-0.490000,-0.490000 /
! XB Pixels: 5 | Resolution: 0.100 m
&VENT SURF_ID='Material_red' ID='Circle pixel not centered_0'
      XB=-0.500010,-0.299990,-0.000010,0.100010,-0.490000,-0.490000 /
&VENT SURF_ID='Material_red' ID='Circle pixel not centered_1'
      XB=-0.800010,0.000010,-0.300010,0.000010,-0.490000,-0.490000 /
&VENT SURF_ID='Material_red' ID='Circle pixel not centered_2'
      XB=-0.900010,0.100010,-0.500010,-0.299990,-0.490000,-0.490000 /
&VENT SURF_ID='Material_red' ID='Circle pixel not centered_3'
      XB=-0.800010,0.000010,-0.800010,-0.499990,-0.490000,-0.490000 /
&VENT SURF_ID='Material_red' ID='Circle pixel not centered_4'
      XB=-0.500010,-0.299990,-0.900010,-0.799990,-0.490000,-0.490000 /
! MESH Cell Qty: 8000
! Cell Size: 0.100m · 0.100m · 0.100m | Aspect: 1.0 | Poisson: Yes
&MESH ID='Domain' IJK=20,20,20
      XB=-1.000000,1.000000,-1.000000,1.000000,-1.000000,1.000000 /

&TAIL /
 