! Generated by BlenderFDS 6.0.0 on Blender 3.2.0 Beta
! Date: Thu, 23 Jun 2022, 10:49:31
! File: ···ification/tests/View_Layer_export/./bl/view_layer_SURF_and_OBST.blend

--- Case from Blender Scene: <view_layer_test> | View Layer: <View layer1>

&HEAD CHID='view_layer_test' TITLE='Testing view layer selection of collections' /
&TIME T_END=1.0 /
&REAC FUEL='PROPANE' CO_YIELD=0.010 SOOT_YIELD=0.020 HEAT_OF_COMBUSTION=46420.0 /

--- Free text from Blender Text: <Text>

Insert here other non-geometrical namelists
&BNDF QUANTITY='WALL TEMPERATURE' /
&BNDF QUANTITY='BURNING RATE' /

--- Boundary conditions from Blender Materials

&SURF ID='Burner bc' RGB=255,0,0 HRRPUA=500.0 TAU_Q=1.0 /
&SURF ID='Material1 bc' RGB=204,166,111 /

--- Computational domain | MPI Processes: 1 | MESH Qty: 1 | Cell Qty: 8000

-- MPI Process: <0> | MESH Qty: 1 | Cell Qty: 8000
Cell Qty: 8000 | Size: 0.200·0.200·0.200m | Aspect: 1.0 | Poisson: Yes
&MESH ID='Domain' IJK=20,20,20 XB=-2.000,2.000,-2.000,2.000,0.000,4.000
      MPI_PROCESS=0 /

--- Geometric namelists from Blender Collections

-- Blender Collection: <Domain>
PB* Planes: 5
&VENT ID='Domain bcs_0' PBX=-2.000 SURF_ID='OPEN' /
&VENT ID='Domain bcs_1' PBX=2.000 SURF_ID='OPEN' /
&VENT ID='Domain bcs_2' PBY=-2.000 SURF_ID='OPEN' /
&VENT ID='Domain bcs_3' PBY=2.000 SURF_ID='OPEN' /
&VENT ID='Domain bcs_4' PBZ=4.000 SURF_ID='OPEN' /

-- Blender Collection: <Burner1>
&VENT ID='Burner' SURF_ID='Burner bc' XB=-1.000,1.000,-1.000,1.000,2.010,2.010 /
&OBST ID='Cube' SURF_ID='Material1 bc' XB=-1.000,1.000,-1.000,1.000,0.000,2.000 /

&TAIL /
