! Generated by BlenderFDS 6.0.0 on Blender 3.2.0 Beta
! Date: Sat, 21 May 2022, 13:50:04
! File: /tmp/tmppipgausc/geom_sphere.blend

--- Case from Blender Scene: <geom_sphere> | View Layer: <ViewLayer>

&HEAD CHID='geom_sphere' /
&TIME T_END=1.0 /

--- Boundary conditions from Blender Materials

&SURF ID='Blue bc' RGB=0,0,255 /
&SURF ID='Dark blue bc' RGB=0,0,50 /
&SURF ID='Dark green bc' RGB=0,50,0 /
&SURF ID='Dark red bc' RGB=50,0,0 /
&SURF ID='Green bc' RGB=0,255,0 /
&SURF ID='Red bc' RGB=255,0,0 /

--- Computational domain | MPI Processes: 1 | MESH Qty: 1 | Cell Qty: 1000

-- MPI Process: <0> | MESH Qty: 1 | Cell Qty: 1000
Cell Qty: 1000 | Size: 0.400·0.400·0.400m | Aspect: 1.0 | Poisson: Yes
&MESH ID='Domain' IJK=10,10,10 XB=-2.0000,2.0000,-2.0000,2.0000,-2.0000,2.0000
      MPI_PROCESS=0 /

--- Geometric namelists from Blender Collections

-- Blender Collection: <New Obstacles>
Vertices: 126 | Faces: 240
&GEOM ID='Sphere002' SURF_ID='Red bc' BINARY_FILE='Icosphere.bingeom' /
Vertices: 126 | Faces: 240
&GEOM ID='Sphere003' SURF_ID='Red bc' BINARY_FILE='Icosphere.001.bingeom' /
Vertices: 126 | Faces: 240
&GEOM ID='Sphere004' SURF_ID='Red bc' BINARY_FILE='Icosphere.002.bingeom' /
Vertices: 126 | Faces: 240
&GEOM ID='Sphere012' SURF_ID='Red bc' BINARY_FILE='Icosphere.003.bingeom' /
Vertices: 126 | Faces: 240
&GEOM ID='Sphere013' SURF_ID='Red bc' BINARY_FILE='Icosphere.004.bingeom' /
Vertices: 126 | Faces: 240
&GEOM ID='Sphere014' SURF_ID='Red bc' BINARY_FILE='Icosphere.005.bingeom' /

&TAIL /
