! Generated by BlenderFDS 6.0.0 on Blender 3.2.0 Beta
! Date: Thu, 23 Jun 2022, 10:54:00
! File: ···/blenderfds.verification/tests/op_copy_export/./bl/copy_objects.blend

--- Case from Blender Scene: <objects_copied> | View Layer: <View Layer>

&HEAD CHID='objects_copied' TITLE='This is an example case' /
&TIME T_END=120.0 /
&REAC FUEL='PROPANE' CO_YIELD=0.010 SOOT_YIELD=0.020 HEAT_OF_COMBUSTION=46420.0 /

--- Free text from Blender Text: <Text>

Insert here other non-geometrical namelists
&BNDF QUANTITY='WALL TEMPERATURE' /
&BNDF QUANTITY='BURNING RATE' /

--- Boundary conditions from Blender Materials

&SURF ID='Example bc' RGB=204,166,111 /

--- Computational domain | MPI Processes: 1 | MESH Qty: 3 | Cell Qty: 8000

-- MPI Process: <0> | MESH Qty: 3 | Cell Qty: 8000
Cell Qty: 2800 | Size: 0.200·0.200·0.200m | Aspect: 1.0 | Poisson: Yes
&MESH ID='Domain_s0' IJK=20,20,7 XB=-2.000,2.000,-2.000,2.000,0.000,1.400
      MPI_PROCESS=0 /
Cell Qty: 2800 | Size: 0.200·0.200·0.200m | Aspect: 1.0 | Poisson: Yes
&MESH ID='Domain_s1' IJK=20,20,7 XB=-2.000,2.000,-2.000,2.000,1.400,2.800
      MPI_PROCESS=0 /
Cell Qty: 2400 | Size: 0.200·0.200·0.200m | Aspect: 1.0 | Poisson: Yes
&MESH ID='Domain_s2' IJK=20,20,6 XB=-2.000,2.000,-2.000,2.000,2.800,4.000
      MPI_PROCESS=0 /

--- Geometric namelists from Blender Collections

-- Blender Collection: <Obstacles>
XB Voxels: 9 | Resolution: 0.050 m
&OBST ID='Cube_0' XB=0.050,0.150,0.200,0.250,-0.000,0.400 FYI='Test'
      SURF_ID='Example bc' T=1 T=2 /
&OBST ID='Cube_1' XB=-0.100,0.150,0.150,0.200,-0.000,0.400 FYI='Test'
      SURF_ID='Example bc' T=1 T=2 /
&OBST ID='Cube_2' XB=-0.150,0.250,-0.150,-0.100,-0.000,0.400 FYI='Test'
      SURF_ID='Example bc' T=1 T=2 /
&OBST ID='Cube_3' XB=-0.150,0.100,-0.200,-0.150,-0.000,0.400 FYI='Test'
      SURF_ID='Example bc' T=1 T=2 /
&OBST ID='Cube_4' XB=-0.150,-0.050,-0.250,-0.200,-0.000,0.400 FYI='Test'
      SURF_ID='Example bc' T=1 T=2 /
&OBST ID='Cube_5' XB=-0.200,0.200,-0.050,0.050,-0.000,0.400 FYI='Test'
      SURF_ID='Example bc' T=1 T=2 /
&OBST ID='Cube_6' XB=-0.200,0.250,-0.100,-0.050,-0.000,0.400 FYI='Test'
      SURF_ID='Example bc' T=1 T=2 /
&OBST ID='Cube_7' XB=-0.250,0.150,0.100,0.150,-0.000,0.400 FYI='Test'
      SURF_ID='Example bc' T=1 T=2 /
&OBST ID='Cube_8' XB=-0.250,0.200,0.050,0.100,-0.000,0.400 FYI='Test'
      SURF_ID='Example bc' T=1 T=2 /
XB Voxels: 9 | Resolution: 0.050 m
&OBST ID='Cube.001_0' XB=1.050,1.150,0.200,0.250,0.000,0.400 FYI='Test'
      SURF_ID='Example bc' T=1 T=2 /
&OBST ID='Cube.001_1' XB=0.900,1.150,0.150,0.200,0.000,0.400 FYI='Test'
      SURF_ID='Example bc' T=1 T=2 /
&OBST ID='Cube.001_2' XB=0.850,1.250,-0.150,-0.100,0.000,0.400 FYI='Test'
      SURF_ID='Example bc' T=1 T=2 /
&OBST ID='Cube.001_3' XB=0.850,1.100,-0.200,-0.150,0.000,0.400 FYI='Test'
      SURF_ID='Example bc' T=1 T=2 /
&OBST ID='Cube.001_4' XB=0.850,0.950,-0.250,-0.200,0.000,0.400 FYI='Test'
      SURF_ID='Example bc' T=1 T=2 /
&OBST ID='Cube.001_5' XB=0.800,1.200,-0.050,0.050,0.000,0.400 FYI='Test'
      SURF_ID='Example bc' T=1 T=2 /
&OBST ID='Cube.001_6' XB=0.800,1.250,-0.100,-0.050,0.000,0.400 FYI='Test'
      SURF_ID='Example bc' T=1 T=2 /
&OBST ID='Cube.001_7' XB=0.750,1.150,0.100,0.150,0.000,0.400 FYI='Test'
      SURF_ID='Example bc' T=1 T=2 /
&OBST ID='Cube.001_8' XB=0.750,1.200,0.050,0.100,0.000,0.400 FYI='Test'
      SURF_ID='Example bc' T=1 T=2 /
&OBST ID='Cube.002' FYI='Test' SURF_ID='Example bc'
      XB=-0.200,0.200,0.800,1.200,-0.000,0.400 T=1 T=2 /
&OBST ID='Cube.003' FYI='Test' SURF_ID='Example bc'
      XB=-1.200,-0.800,-0.200,0.200,-0.000,0.400 T=1 T=2 /
&OBST ID='Cube.004' FYI='Test' SURF_ID='Example bc'
      XB=-0.200,0.200,-1.200,-0.800,-0.000,0.400 T=1 T=2 /

&TAIL /
