! Generated by BlenderFDS 6.0.0 on Blender 3.2.0 Beta
! Date: Sat, 21 May 2022, 13:50:01
! File: /tmp/tmp8eyvzib5/geom_shared_bingeom.blend

--- Case from Blender Scene: <geom_shared_bingeom> | View Layer: <ViewLayer>

&HEAD CHID='geom_shared_bingeom' /
&TIME T_END=1.0 /

--- Boundary conditions from Blender Materials

&SURF ID='Material_blue' RGB=0,16,204 /
&SURF ID='Material_red' RGB=255,0,0 /

--- Computational domain | MPI Processes: 1 | MESH Qty: 1 | Cell Qty: 8000

-- MPI Process: <0> | MESH Qty: 1 | Cell Qty: 8000
Cell Qty: 8000 | Size: 0.100·0.100·0.100m | Aspect: 1.0 | Poisson: Yes
&MESH ID='Domain' IJK=20,20,20 XB=-1.0000,1.0000,-1.0000,1.0000,-1.0000,1.0000
      MPI_PROCESS=0 /

--- Geometric namelists from Blender Collections

-- Blender Collection: <New Obstacles>
Vertices: 12 | Faces: 12
&GEOM ID='Tet.002' SURF_ID='INERT','Material_red','Material_blue'
      BINARY_FILE='Tet_01.bingeom' /
Vertices: 12 | Faces: 12
&GEOM ID='Tet.003' SURF_ID='INERT','Material_red','Material_blue'
      BINARY_FILE='Tet_01.001.bingeom' /
Vertices: 12 | Faces: 12
&GEOM ID='Tet.004' SURF_ID='INERT','Material_red','Material_blue'
      BINARY_FILE='Tet_01.002.bingeom' /
Vertices: 12 | Faces: 12
&GEOM ID='Tet.005' SURF_ID='INERT','Material_red','Material_blue'
      BINARY_FILE='Tet_01.003.bingeom' /
Vertices: 12 | Faces: 12
&GEOM ID='Tet.007' SURF_ID='INERT','Material_red','Material_blue'
      BINARY_FILE='Tet_01.004.bingeom' /

&TAIL /
