! Generated by BlenderFDS 6.0.0 on Blender 3.2.0 Beta
! Date: Fri, 13 May 2022, 16:37:31
! File: /home/egissi/github/blenderfds/startup.blend
--- Case from Blender Scene: <geom_shared_bingeom> | View Layer: <ViewLayer>
&HEAD CHID='geom_shared_bingeom' /
&TIME T_END=1.0 /

--- Boundary conditions from Blender Materials
&SURF ID='Material_blue' RGB=0,16,204 /
&SURF ID='Material_red' RGB=255,0,0 /

--- Geometric namelists from Blender Collections

--- Blender Collection: <New Domain>
MESH Qty: 1 | Splits: 1 | Multiples: 1
Cell Qty: 8000 (~8000 each)
Size: 0.100 · 0.100 · 0.100m | Aspect: 1.0 | Poisson: Yes
&MESH ID='Domain' IJK=20,20,20 XB=-1.0000,1.0000,-1.0000,1.0000,-1.0000,1.0000 /

--- Blender Collection: <New Obstacles>
GEOM Vertices: 12 | Faces: 12
&GEOM ID='Tet.002' SURF_ID='INERT','Material_red','Material_blue'
      BINARY_FILE='Tet_01.bingeom' /
GEOM Vertices: 12 | Faces: 12
&GEOM ID='Tet.003' SURF_ID='INERT','Material_red','Material_blue'
      BINARY_FILE='Tet_01.001.bingeom' /
GEOM Vertices: 12 | Faces: 12
&GEOM ID='Tet.004' SURF_ID='INERT','Material_red','Material_blue'
      BINARY_FILE='Tet_01.002.bingeom' /
GEOM Vertices: 12 | Faces: 12
&GEOM ID='Tet.005' SURF_ID='INERT','Material_red','Material_blue'
      BINARY_FILE='Tet_01.003.bingeom' /
GEOM Vertices: 12 | Faces: 12
&GEOM ID='Tet.007' SURF_ID='INERT','Material_red','Material_blue'
      BINARY_FILE='Tet_01.004.bingeom' /

&TAIL /
