!!! Generated by BlenderFDS 6.0.0 on Blender 3.0.0
!!! Date: <mer, 16 feb 2022, 10:33:56>
!!! File: <···erification/tests/test_align_meshes/bl/align_meshes.blend>
! --- Case from Blender Scene <align_coarser_meshes> and View Layer <View Layer>
&HEAD CHID='align_coarser_meshes' /
&TIME T_END=1.0 /

! --- Geometric namelists from Blender Collections

! --- Collection.001
! MESH Cell Qty: 1440
! Cell Size: 0.400m · 0.364m · 0.333m | Aspect: 1.2 | Poisson: Yes
&MESH ID='Domain.001_0' IJK=10,12,4
      XB=0.000000,4.000000,0.000000,4.363636,0.000000,1.333333 /
&MESH ID='Domain.001_1' IJK=10,12,4
      XB=0.000000,4.000000,0.000000,4.363636,1.333333,2.666667 /
&MESH ID='Domain.001_2' IJK=10,12,4
      XB=0.000000,4.000000,0.000000,4.363636,2.666667,4.000000 /
! MESH Cell Qty: 180
! Cell Size: 0.857m · 0.727m · 0.667m | Aspect: 1.3 | Poisson: Yes
&MESH ID='Domain_x.001' IJK=5,6,6
      XB=4.000000,8.284060,0.000000,4.363636,0.000000,4.000000 /
! MESH Cell Qty: 150
! Cell Size: 0.800m · 0.787m · 0.667m | Aspect: 1.2 | Poisson: Yes
&MESH ID='Domain_y.001' IJK=5,5,6
      XB=0.000000,4.000000,4.363636,8.296534,0.000000,4.000000 /
! MESH Cell Qty: 150
! Cell Size: 0.800m · 0.727m · 0.854m | Aspect: 1.2 | Poisson: Yes
&MESH ID='Domain_z.001' IJK=5,6,5
      XB=0.000000,4.000000,0.000000,4.363636,4.000000,8.269003 /

&TAIL /
 