! Generated by BlenderFDS 6.0.0 on Blender 3.2.0 Beta
! Date: Sat, 21 May 2022, 14:28:38
! File: ···fds.verification/tests/op_align_MESHes_export/./bl/align_meshes.blend

--- Case from Blender Scene: <align_coarser_meshes> | View Layer: <View Layer>

&HEAD CHID='align_coarser_meshes' /
&TIME T_END=1.0 /

--- Computational domain | MPI Processes: 1 | MESH Qty: 4 | Cell Qty: 1920

-- MPI Process: <0> | MESH Qty: 4 | Cell Qty: 1920
Cell Qty: 1440 | Size: 0.400·0.364·0.333m | Aspect: 1.2 | Poisson: Yes
&MESH ID='Domain.001' IJK=10,12,12 XB=0.0000,4.0000,0.0000,4.3636,0.0000,4.0000
      MPI_PROCESS=0 /
Cell Qty: 180 | Size: 0.857·0.727·0.667m | Aspect: 1.3 | Poisson: Yes
&MESH ID='Domain_x.001' IJK=5,6,6 XB=4.0000,8.2841,0.0000,4.3636,0.0000,4.0000
      MPI_PROCESS=0 /
Cell Qty: 150 | Size: 0.800·0.787·0.667m | Aspect: 1.2 | Poisson: Yes
&MESH ID='Domain_y.001' IJK=5,5,6 XB=0.0000,4.0000,4.3636,8.2965,0.0000,4.0000
      MPI_PROCESS=0 /
Cell Qty: 150 | Size: 0.800·0.727·0.854m | Aspect: 1.2 | Poisson: Yes
&MESH ID='Domain_z.001' IJK=5,6,5 XB=0.0000,4.0000,0.0000,4.3636,4.0000,8.2690
      MPI_PROCESS=0 /

&TAIL /
