!!! Generated by BlenderFDS 6.0.0 on Blender 3.0.0
!!! Date: <gio, 13 gen 2022, 12:02:38>
!!! File: </home/egissi/untitled.blend>
! --- Case from Blender Scene <geom_xb_move_rot> and View Layer <ViewLayer>
&HEAD CHID='geom_xb_move_rot' /
&TIME T_END=1.0 /

! --- Boundary conditions from Blender Materials
&SURF ID='Blue bc' RGB=0,0,255 /
&SURF ID='Dark blue bc' RGB=0,0,50 /
&SURF ID='Dark green bc' RGB=0,50,0 /
&SURF ID='Dark red bc' RGB=50,0,0 /
&SURF ID='Green bc' RGB=0,255,0 /
&SURF ID='Red bc' RGB=255,0,0 /

! --- Geometric namelists from Blender Collections
! GEOM Vertices: 24 | Faces: 36
&MOVE ID='Cube001'
      T34=1.000000,0.000000,0.000000,0.000000,1.000000,0.000000,0.000000,
        0.000000,1.000000,0.000000,0.000000,0.000000 /
&GEOM ID='Cube001'
      SURF_ID='Dark red bc','Red bc','Dark green bc','Green bc','Dark blue bc',
        'Blue bc'
      MOVE_ID='Cube001'
      VERTS=-1.000000,-1.000000,-1.000000,1.000000,-1.000000,-1.000000,1.000000,
        1.000000,-1.000000,-1.000000,1.000000,-1.000000,-1.000000,-1.000000,
        1.000000,1.000000,-1.000000,1.000000,1.000000,1.000000,1.000000,
        -1.000000,1.000000,1.000000
      FACES=5,4,1,1,6,3,7,2,2,5,1,3,3,8,7,4,4,2,1,5,8,6,7,6,5,8,4,1,6,2,3,2,2,6,
        5,3,3,4,8,4,4,3,2,5,8,5,6,6 /
! GEOM Vertices: 24 | Faces: 36
&MOVE ID='Cube002'
      T34=1.000000,0.000000,0.000000,0.000000,0.939693,0.342020,0.000000,
        -0.342020,0.939693,0.000000,3.721738,-1.107026 /
&GEOM ID='Cube002'
      SURF_ID='Dark red bc','Red bc','Dark green bc','Green bc','Dark blue bc',
        'Blue bc'
      MOVE_ID='Cube002'
      VERTS=-1.000000,-1.000000,-1.000000,1.000000,-1.000000,-1.000000,1.000000,
        1.000000,-1.000000,-1.000000,1.000000,-1.000000,-1.000000,-1.000000,
        1.000000,1.000000,-1.000000,1.000000,1.000000,1.000000,1.000000,
        -1.000000,1.000000,1.000000
      FACES=5,4,1,1,6,3,7,2,2,5,1,3,3,8,7,4,4,2,1,5,8,6,7,6,5,8,4,1,6,2,3,2,2,6,
        5,3,3,4,8,4,4,3,2,5,8,5,6,6 /
! GEOM Vertices: 24 | Faces: 36
&MOVE ID='Cube003'
      T34=1.000000,0.000000,0.000000,0.000000,0.766044,0.642788,0.000000,
        -0.642788,0.766044,0.000000,7.597655,-0.874382 /
&GEOM ID='Cube003'
      SURF_ID='Dark red bc','Red bc','Dark green bc','Green bc','Dark blue bc',
        'Blue bc'
      MOVE_ID='Cube003'
      VERTS=-1.000000,-1.000000,-1.000000,1.000000,-1.000000,-1.000000,1.000000,
        1.000000,-1.000000,-1.000000,1.000000,-1.000000,-1.000000,-1.000000,
        1.000000,1.000000,-1.000000,1.000000,1.000000,1.000000,1.000000,
        -1.000000,1.000000,1.000000
      FACES=5,4,1,1,6,3,7,2,2,5,1,3,3,8,7,4,4,2,1,5,8,6,7,6,5,8,4,1,6,2,3,2,2,6,
        5,3,3,4,8,4,4,3,2,5,8,5,6,6 /
! GEOM Vertices: 24 | Faces: 36
&MOVE ID='Cube011'
      T34=1.000000,0.000000,0.000000,0.000000,1.000000,0.000000,0.000000,
        0.000000,1.000000,5.000000,0.000000,0.000000 /
&GEOM ID='Cube011'
      SURF_ID='Dark red bc','Red bc','Dark green bc','Green bc','Dark blue bc',
        'Blue bc'
      MOVE_ID='Cube011'
      VERTS=-1.000000,-1.000000,-1.000000,1.000000,-1.000000,-1.000000,1.000000,
        1.000000,-1.000000,-1.000000,1.000000,-1.000000,-1.000000,-1.000000,
        1.000000,1.000000,-1.000000,1.000000,1.000000,1.000000,1.000000,
        -1.000000,1.000000,1.000000
      FACES=5,4,1,1,6,3,7,2,2,5,1,3,3,8,7,4,4,2,1,5,8,6,7,6,5,8,4,1,6,2,3,2,2,6,
        5,3,3,4,8,4,4,3,2,5,8,5,6,6 /
! GEOM Vertices: 24 | Faces: 36
&MOVE ID='Cube012'
      T34=1.000000,0.000000,0.000000,0.000000,0.939693,0.342020,0.000000,
        -0.342020,0.939693,5.000000,3.721738,-1.107026 /
&GEOM ID='Cube012'
      SURF_ID='Dark red bc','Red bc','Dark green bc','Green bc','Dark blue bc',
        'Blue bc'
      MOVE_ID='Cube012'
      VERTS=-1.000000,-1.000000,-1.000000,1.000000,-1.000000,-1.000000,1.000000,
        1.000000,-1.000000,-1.000000,1.000000,-1.000000,-1.000000,-1.000000,
        1.000000,1.000000,-1.000000,1.000000,1.000000,1.000000,1.000000,
        -1.000000,1.000000,1.000000
      FACES=5,4,1,1,6,3,7,2,2,5,1,3,3,8,7,4,4,2,1,5,8,6,7,6,5,8,4,1,6,2,3,2,2,6,
        5,3,3,4,8,4,4,3,2,5,8,5,6,6 /
! GEOM Vertices: 24 | Faces: 36
&MOVE ID='Cube013'
      T34=1.000000,0.000000,0.000000,0.000000,0.766044,0.642788,0.000000,
        -0.642788,0.766044,5.000000,7.597655,-0.874382 /
&GEOM ID='Cube013'
      SURF_ID='Dark red bc','Red bc','Dark green bc','Green bc','Dark blue bc',
        'Blue bc'
      MOVE_ID='Cube013'
      VERTS=-1.000000,-1.000000,-1.000000,1.000000,-1.000000,-1.000000,1.000000,
        1.000000,-1.000000,-1.000000,1.000000,-1.000000,-1.000000,-1.000000,
        1.000000,1.000000,-1.000000,1.000000,1.000000,1.000000,1.000000,
        -1.000000,1.000000,1.000000
      FACES=5,4,1,1,6,3,7,2,2,5,1,3,3,8,7,4,4,2,1,5,8,6,7,6,5,8,4,1,6,2,3,2,2,6,
        5,3,3,4,8,4,4,3,2,5,8,5,6,6 /
! GEOM Vertices: 24 | Faces: 36
&MOVE ID='Cube021'
      T34=1.000000,0.000000,0.000000,0.000000,1.000000,0.000000,0.000000,
        0.000000,1.000000,10.000000,-5.000000,0.000000 /
&GEOM ID='Cube021'
      SURF_ID='Dark red bc','Red bc','Dark green bc','Green bc','Dark blue bc',
        'Blue bc'
      MOVE_ID='Cube021'
      VERTS=-1.000000,-1.000000,-1.000000,1.000000,-1.000000,-1.000000,1.000000,
        1.000000,-1.000000,-1.000000,1.000000,-1.000000,-1.000000,-1.000000,
        1.000000,1.000000,-1.000000,1.000000,1.000000,1.000000,1.000000,
        -1.000000,1.000000,1.000000
      FACES=5,4,1,1,6,3,7,2,2,5,1,3,3,8,7,4,4,2,1,5,8,6,7,6,5,8,4,1,6,2,3,2,2,6,
        5,3,3,4,8,4,4,3,2,5,8,5,6,6 /
! GEOM Vertices: 24 | Faces: 36
&MOVE ID='Cube022'
      T34=0.939693,0.000000,-0.342020,0.000000,1.000000,0.000000,0.342020,
        0.000000,0.939693,6.881336,-5.000000,2.313174 /
&GEOM ID='Cube022'
      SURF_ID='Dark red bc','Red bc','Dark green bc','Green bc','Dark blue bc',
        'Blue bc'
      MOVE_ID='Cube022'
      VERTS=-1.000000,-1.000000,-1.000000,1.000000,-1.000000,-1.000000,1.000000,
        1.000000,-1.000000,-1.000000,1.000000,-1.000000,-1.000000,-1.000000,
        1.000000,1.000000,-1.000000,1.000000,1.000000,1.000000,1.000000,
        -1.000000,1.000000,1.000000
      FACES=5,4,1,1,6,3,7,2,2,5,1,3,3,8,7,4,4,2,1,5,8,6,7,6,5,8,4,1,6,2,3,2,2,6,
        5,3,3,4,8,4,4,3,2,5,8,5,6,6 /
! GEOM Vertices: 24 | Faces: 36
&MOVE ID='Cube023'
      T34=0.766044,0.000000,-0.642788,0.000000,1.000000,0.000000,0.642788,
        0.000000,0.766044,4.741901,-5.000000,5.553494 /
&GEOM ID='Cube023'
      SURF_ID='Dark red bc','Red bc','Dark green bc','Green bc','Dark blue bc',
        'Blue bc'
      MOVE_ID='Cube023'
      VERTS=-1.000000,-1.000000,-1.000000,1.000000,-1.000000,-1.000000,1.000000,
        1.000000,-1.000000,-1.000000,1.000000,-1.000000,-1.000000,-1.000000,
        1.000000,1.000000,-1.000000,1.000000,1.000000,1.000000,1.000000,
        -1.000000,1.000000,1.000000
      FACES=5,4,1,1,6,3,7,2,2,5,1,3,3,8,7,4,4,2,1,5,8,6,7,6,5,8,4,1,6,2,3,2,2,6,
        5,3,3,4,8,4,4,3,2,5,8,5,6,6 /
! GEOM Vertices: 24 | Faces: 36
&MOVE ID='Cube031'
      T34=1.000000,0.000000,0.000000,0.000000,1.000000,0.000000,0.000000,
        0.000000,1.000000,10.000000,-10.000000,0.000000 /
&GEOM ID='Cube031'
      SURF_ID='Dark red bc','Red bc','Dark green bc','Green bc','Dark blue bc',
        'Blue bc'
      MOVE_ID='Cube031'
      VERTS=-1.000000,-1.000000,-1.000000,1.000000,-1.000000,-1.000000,1.000000,
        1.000000,-1.000000,-1.000000,1.000000,-1.000000,-1.000000,-1.000000,
        1.000000,1.000000,-1.000000,1.000000,1.000000,1.000000,1.000000,
        -1.000000,1.000000,1.000000
      FACES=5,4,1,1,6,3,7,2,2,5,1,3,3,8,7,4,4,2,1,5,8,6,7,6,5,8,4,1,6,2,3,2,2,6,
        5,3,3,4,8,4,4,3,2,5,8,5,6,6 /
! GEOM Vertices: 24 | Faces: 36
&MOVE ID='Cube032'
      T34=0.939693,0.000000,-0.342020,0.000000,1.000000,0.000000,0.342020,
        0.000000,0.939693,6.881336,-10.000000,2.313174 /
&GEOM ID='Cube032'
      SURF_ID='Dark red bc','Red bc','Dark green bc','Green bc','Dark blue bc',
        'Blue bc'
      MOVE_ID='Cube032'
      VERTS=-1.000000,-1.000000,-1.000000,1.000000,-1.000000,-1.000000,1.000000,
        1.000000,-1.000000,-1.000000,1.000000,-1.000000,-1.000000,-1.000000,
        1.000000,1.000000,-1.000000,1.000000,1.000000,1.000000,1.000000,
        -1.000000,1.000000,1.000000
      FACES=5,4,1,1,6,3,7,2,2,5,1,3,3,8,7,4,4,2,1,5,8,6,7,6,5,8,4,1,6,2,3,2,2,6,
        5,3,3,4,8,4,4,3,2,5,8,5,6,6 /
! GEOM Vertices: 24 | Faces: 36
&MOVE ID='Cube033'
      T34=0.766044,0.000000,-0.642788,0.000000,1.000000,0.000000,0.642788,
        0.000000,0.766044,4.741901,-10.000000,5.553494 /
&GEOM ID='Cube033'
      SURF_ID='Dark red bc','Red bc','Dark green bc','Green bc','Dark blue bc',
        'Blue bc'
      MOVE_ID='Cube033'
      VERTS=-1.000000,-1.000000,-1.000000,1.000000,-1.000000,-1.000000,1.000000,
        1.000000,-1.000000,-1.000000,1.000000,-1.000000,-1.000000,-1.000000,
        1.000000,1.000000,-1.000000,1.000000,1.000000,1.000000,1.000000,
        -1.000000,1.000000,1.000000
      FACES=5,4,1,1,6,3,7,2,2,5,1,3,3,8,7,4,4,2,1,5,8,6,7,6,5,8,4,1,6,2,3,2,2,6,
        5,3,3,4,8,4,4,3,2,5,8,5,6,6 /
! MESH Cell Qty: 1000
! Cell Size: 0.400m · 0.400m · 0.400m | Aspect: 1.0 | Poisson: Yes
&MESH ID='Domain' IJK=10,10,10
      XB=-2.000000,2.000000,-2.000000,2.000000,-2.000000,2.000000 /

&TAIL /
 