!!! Generated by BlenderFDS 6.0.0 on Blender 3.0.0
!!! Date: <mer, 16 feb 2022, 10:46:55>
!!! File: <···ication/tests/test_geometries/bl/xb_xyz_pb_geometry.blend>
! --- Case from Blender Scene <xyz_center> and View Layer <View Layer>
&HEAD CHID='xyz_center' TITLE='Test centers' /
&TIME T_END=1.0 /

! --- Geometric namelists from Blender Collections
! MESH Cell Qty: 1000
! Cell Size: 0.100m · 0.100m · 0.100m | Aspect: 1.0 | Poisson: Yes
&MESH ID='Domain_small' IJK=10,10,10
      XB=-0.500000,0.500000,-0.500000,0.500000,-0.500000,0.500000 /
&DEVC ID='c11' QUANTITY='TEMPERATURE' XYZ=0.393750,0.393750,0.000000 /
&DEVC ID='c12' QUANTITY='TEMPERATURE' XYZ=0.393750,0.043750,0.000000 /
&DEVC ID='c13' QUANTITY='TEMPERATURE' XYZ=0.393750,-0.306250,0.000000 /
&DEVC ID='c21' QUANTITY='TEMPERATURE' XYZ=0.043750,0.393750,0.000000 /
&DEVC ID='c22' QUANTITY='TEMPERATURE' XYZ=0.043750,0.043750,0.000000 /
&DEVC ID='c23' QUANTITY='TEMPERATURE' XYZ=0.043750,-0.306250,0.000000 /
&DEVC ID='c31' QUANTITY='TEMPERATURE' XYZ=-0.306250,0.393750,0.000000 /
&DEVC ID='c32' QUANTITY='TEMPERATURE' XYZ=-0.306250,0.043750,0.000000 /

&TAIL /
 