! Generated by BlenderFDS 5.0.0 on Blender 2.83.3
! Date: <Sat, 12 Sep 2020, 11:00:29>
! File: <...erfds28x/verification/test_geometry_export/geometry.blend>
! --- Case from Blender Scene <center_modifiers>
&HEAD CHID='center_modifiers' TITLE='Test centers' /
&TIME T_END=1.0 /
 
! --- Geometric namelists from Blender Collection <Master Collection>
! MESH Cell Size: 0.100 m, 0.100 m, 0.100 m | Qty: 1000 | Aspect: 1.0 | Poisson: Yes
&MESH ID='Domain.002' IJK=10,10,10
      XB=-0.500000,0.500000,-0.500000,0.500000,-0.500000,0.500000 /
&DEVC ID='c11' QUANTITY='TEMPERATURE' XYZ=0.394,0.394,0.000 /
&DEVC ID='c12' QUANTITY='TEMPERATURE' XYZ=0.394,0.044,0.000 /
&DEVC ID='c13' QUANTITY='TEMPERATURE' XYZ=0.394,-0.306,0.000 /
&DEVC ID='c21' QUANTITY='TEMPERATURE' XYZ=0.044,0.394,0.000 /
&DEVC ID='c22' QUANTITY='TEMPERATURE' XYZ=0.044,0.044,0.000 /
&DEVC ID='c23' QUANTITY='TEMPERATURE' XYZ=0.044,-0.306,0.000 /
&DEVC ID='c31' QUANTITY='TEMPERATURE' XYZ=-0.306,0.394,0.000 /
&DEVC ID='c32' QUANTITY='TEMPERATURE' XYZ=-0.306,0.044,0.000 /

&TAIL /
 
