! Generated by BlenderFDS 5.0.0 on Blender 2.83.3
! Date: <Mon, 21 Sep 2020, 19:57:22>
! File: <...erfds28x/verification/test_geometry_export/geometry.blend>
! --- Case from Blender Scene <geom_terrain_extend_bingeom>
&HEAD CHID='geom_terrain_extend_bingeom' TITLE='Test simple geom' /
&TIME T_END=1.0 /

! --- Boundary conditions from related Blender Materials
&SURF ID='Material_blue' RGB=0,16,204 /
&SURF ID='Material_red' RGB=255,0,0 /
 
! --- Geometric namelists from Blender Collection <Scene Collection>
! MESH Cell Size: 0.100 m, 0.100 m, 0.100 m | Qty: 8000 | Aspect: 1.0 | Poisson: Yes
&MESH ID='Domain.003' IJK=20,20,20
      XB=-1.000000,1.000000,-1.000000,1.000000,-1.000000,1.000000 /
! GEOM Vertices: 45 | Faces: 51
&GEOM ID='Terrain.002' SURF_ID='INERT','Material_red','Material_blue'
      BINARY_FILE='Terrain_extend.bingeom' IS_TERRAIN=T EXTEND_TERRAIN=T /

&TAIL /
 
