! Generated by BlenderFDS 5.0.0 on Blender 2.83.3
! Date: <Sat, 12 Sep 2020, 11:00:29>
! File: <...erfds28x/verification/test_geometry_export/geometry.blend>
! --- Case from Blender Scene <geom_simple>
&HEAD CHID='geom_simple' TITLE='Test simple geom' /
&TIME T_END=1.0 /

! --- Boundary conditions from related Blender Materials
&SURF ID='Material_blue' RGB=0,16,204 /
&SURF ID='Material_red' RGB=255,0,0 /
 
! --- Geometric namelists from Blender Collection <Scene Collection>
! MESH Cell Size: 0.100 m, 0.100 m, 0.100 m | Qty: 8000 | Aspect: 1.0 | Poisson: Yes
&MESH ID='Domain' IJK=20,20,20
      XB=-1.000000,1.000000,-1.000000,1.000000,-1.000000,1.000000 /
! GEOM Vertices: 12 | Faces: 12
&GEOM ID='Tet' SURF_ID='INERT','Material_red','Material_blue'
      VERTS=0.000000,-0.500000,0.000000,-0.500000,0.500000,0.000000,0.500000,
        0.500000,0.000000,0.000000,0.000000,1.000000
      FACES=4,2,1,1,2,3,1,1,1,3,4,3,3,2,4,2 /

&TAIL /
 
