! Generated by BlenderFDS 5.0.0 on Blender 2.83.3
! Date: <Mon, 21 Sep 2020, 19:55:39>
! File: <...erfds28x/verification/test_geometry_export/geometry.blend>
! --- Case from Blender Scene <geom_terrain>
&HEAD CHID='geom_terrain' TITLE='Test simple geom' /
&TIME T_END=1.0 /

! --- Boundary conditions from related Blender Materials
&SURF ID='Material_blue' RGB=0,16,204 /
&SURF ID='Material_red' RGB=255,0,0 /
 
! --- Geometric namelists from Blender Collection <Master Collection>
! MESH Cell Size: 0.100 m, 0.100 m, 0.100 m | Qty: 8000 | Aspect: 1.0 | Poisson: Yes
&MESH ID='Domain.003' IJK=20,20,20
      XB=-1.000000,1.000000,-1.000000,1.000000,-1.000000,1.000000 /
! GEOM Vertices: 42 | Faces: 48
&GEOM ID='Terrain' SURF_ID='INERT','Material_red','Material_blue' IS_TERRAIN=T
      EXTEND_TERRAIN=F
      VERTS=0.000000,-0.500000,0.000000,-0.500000,0.500000,0.000000,0.500000,
        0.500000,0.000000,0.000000,0.000000,1.000000,-0.500000,-1.500000,
        0.000000,0.500000,-1.500000,0.000000,-0.500000,2.500000,0.000000,
        0.500000,2.500000,0.000000,-2.500000,0.500000,0.000000,-2.500000,
        -1.500000,0.000000,-2.500000,2.500000,0.000000,2.500000,0.500000,
        0.000000,2.500000,-1.500000,0.000000,2.500000,2.500000,0.000000
      FACES=4,2,1,1,1,3,4,3,3,2,4,2,2,5,1,1,3,1,6,1,3,7,2,2,7,9,2,1,2,10,5,1,3,
        14,8,2,6,12,3,2,3,8,7,2,7,11,9,1,2,9,10,1,3,12,14,2,6,13,12,2,1,5,6,1 /

&TAIL /
 