! Generated by BlenderFDS 5.0.0 on Blender 2.83.3
! Date: <Sat, 12 Sep 2020, 11:00:29>
! File: <...erfds28x/verification/test_geometry_export/geometry.blend>
! --- Case from Blender Scene <planes_modifiers>
&HEAD CHID='planes_modifiers' TITLE='Test planes w modifiers' /
&TIME T_END=1.0 /
 
! --- Geometric namelists from Blender Collection <Master Collection>
! MESH Cell Size: 0.100 m, 0.100 m, 0.100 m | Qty: 8000 | Aspect: 1.0 | Poisson: Yes
&MESH ID='Domain' IJK=20,20,20
      XB=-1.000000,1.000000,-1.000000,1.000000,-1.000000,1.000000 /
! PB* Planes: 6
&VENT ID='Domain bc_0' PBX=-0.999848 SURF_ID='OPEN' /
&VENT ID='Domain bc_1' PBX=0.999848 SURF_ID='OPEN' /
&VENT ID='Domain bc_2' PBY=-0.999848 SURF_ID='OPEN' /
&VENT ID='Domain bc_3' PBY=0.999848 SURF_ID='OPEN' /
&VENT ID='Domain bc_4' PBZ=-1.000000 SURF_ID='OPEN' /
&VENT ID='Domain bc_5' PBZ=1.000000 SURF_ID='OPEN' /
! PB* Planes: 6
&SLCF ID='SLCFs_x+0.000' PBX=0.000000 QUANTITY='TEMPERATURE' VECTOR=T /
&SLCF ID='SLCFs_x+0.500' PBX=0.500000 QUANTITY='TEMPERATURE' VECTOR=T /
&SLCF ID='SLCFs_y+0.000' PBY=0.000000 QUANTITY='TEMPERATURE' VECTOR=T /
&SLCF ID='SLCFs_y+0.500' PBY=0.500000 QUANTITY='TEMPERATURE' VECTOR=T /
&SLCF ID='SLCFs_z+0.000' PBZ=0.000000 QUANTITY='TEMPERATURE' VECTOR=T /
&SLCF ID='SLCFs_z+0.500' PBZ=0.500000 QUANTITY='TEMPERATURE' VECTOR=T /

&TAIL /
 