! Generated by BlenderFDS 5.1.1 on Blender 2.93.0
! Date: <gio, 05 ago 2021, 20:29:16>
! File: <...fication/test_geom_parenting_export/table_and_chair.blend>
! --- Case from Blender Scene <table_and_chair>
&HEAD CHID='table_and_chair' TITLE='This is an example case' /
&TIME T_END=1.0 /
 
! --- Geometric namelists from Blender Collection <Scene Collection>
! --- Geometric namelists from Blender Collection <Domain>
! PB* Planes: 5
&VENT ID='BCs_0' PBX=-5.144509 SURF_ID='OPEN' /
&VENT ID='BCs_1' PBX=5.144509 SURF_ID='OPEN' /
&VENT ID='BCs_2' PBY=-5.144509 SURF_ID='OPEN' /
&VENT ID='BCs_3' PBY=5.144509 SURF_ID='OPEN' /
&VENT ID='BCs_4' PBZ=4.965921 SURF_ID='OPEN' /
! MESH Cell Size: 0.202 m, 0.191 m, 0.199 m | Qty: 68850 | Aspect: 1.1 | Poisson: Yes
&MESH ID='Domain' IJK=51,54,25
      XB=-5.144509,5.144509,-5.144509,5.144509,0.000000,4.965921 /
! --- Geometric namelists from Blender Collection <Table collection>
! GEOM Vertices: 228 | Faces: 444
&MOVE ID='Chair1_move'
      T34=0.759378,0.438427,0.000000,-0.438427,0.759378,0.000000,0.000000,
        0.000000,0.876854,-2.982608,-1.722009,1.375132 /
&GEOM ID='Chair1' SURF_ID='INERT' BINARY_FILE='chair_shape.bingeom'
      MOVE_ID='Chair1_move' /
! GEOM Vertices: 228 | Faces: 444
&MOVE ID='Chair2_move'
      T34=0.438427,-0.759378,0.000000,0.759378,0.438427,0.000000,0.000000,
        0.000000,0.876854,-1.741763,2.829436,1.375132 /
&GEOM ID='Chair2' SURF_ID='INERT' BINARY_FILE='chair_shape.bingeom'
      MOVE_ID='Chair2_move' /
! GEOM Vertices: 228 | Faces: 444
&MOVE ID='Chair3_move'
      T34=-0.759378,-0.438427,0.000000,0.438427,-0.759378,0.000000,0.000000,
        0.000000,0.876854,2.963362,1.710898,1.375132 /
&GEOM ID='Chair3' SURF_ID='INERT' BINARY_FILE='chair_shape.bingeom'
      MOVE_ID='Chair3_move' /
! GEOM Vertices: 228 | Faces: 444
&MOVE ID='Chair4_move'
      T34=-0.438427,0.759378,0.000000,-0.759378,-0.438427,0.000000,0.000000,
        0.000000,0.876854,1.534373,-2.844998,1.375132 /
&GEOM ID='Chair4' SURF_ID='INERT' BINARY_FILE='chair_shape.bingeom'
      MOVE_ID='Chair4_move' /
! GEOM Vertices: 198 | Faces: 384
&GEOM ID='Table' SURF_ID='INERT' BINARY_FILE='table_shape.bingeom' /

&TAIL /
 
