!!! Generated by BlenderFDS 6.0.0 on Blender 3.0.0
!!! Date: <mar, 11 gen 2022, 16:12:24>
!!! File: <...tion/tests/bf_geometry_to_fds/bl/xb_xyz_pb_geometry.blend>
! --- Case from Blender Scene <pb_planes_modifiers> and View Layer <View Layer>
&HEAD CHID='pb_planes_modifiers' TITLE='Test planes w modifiers' /
&TIME T_END=1.0 /

! --- Geometric namelists from Blender Collections
! MESH Cell Qty: 8000
! Cell Size: 0.100m · 0.100m · 0.100m | Aspect: 1.0 | Poisson: Yes
&MESH ID='Domain' IJK=20,20,20
      XB=-1.000000,1.000000,-1.000000,1.000000,-1.000000,1.000000 /
! PB* Planes: 6
&VENT SURF_ID='OPEN' ID='Domain bc_0' PBX=-0.999848 /
&VENT SURF_ID='OPEN' ID='Domain bc_1' PBX=0.999848 /
&VENT SURF_ID='OPEN' ID='Domain bc_2' PBY=-0.999848 /
&VENT SURF_ID='OPEN' ID='Domain bc_3' PBY=0.999848 /
&VENT SURF_ID='OPEN' ID='Domain bc_4' PBZ=-1.000000 /
&VENT SURF_ID='OPEN' ID='Domain bc_5' PBZ=1.000000 /
! PB* Planes: 6
&SLCF QUANTITY='TEMPERATURE' VECTOR=T ID='SLCFs_x+0.000' PBX=0.000000 /
&SLCF QUANTITY='TEMPERATURE' VECTOR=T ID='SLCFs_x+0.500' PBX=0.500000 /
&SLCF QUANTITY='TEMPERATURE' VECTOR=T ID='SLCFs_y+0.000' PBY=0.000000 /
&SLCF QUANTITY='TEMPERATURE' VECTOR=T ID='SLCFs_y+0.500' PBY=0.500000 /
&SLCF QUANTITY='TEMPERATURE' VECTOR=T ID='SLCFs_z+0.000' PBZ=0.000000 /
&SLCF QUANTITY='TEMPERATURE' VECTOR=T ID='SLCFs_z+0.500' PBZ=0.500000 /

&TAIL /
 