! Generated by BlenderFDS 6.0.0 on Blender 3.2.0 Beta
! Date: Fri, 13 May 2022, 16:04:18
! File: ···rfds.verification/tests/geometries_export/bl/xb_xyz_pb_geometry.blend
--- Case from Blender Scene: <xyz_center> | View Layer: <View Layer>
&HEAD CHID='xyz_center' TITLE='Test centers' /
&TIME T_END=1.0 /

--- Geometric namelists from Blender Collections
MESH Qty: 1 | Splits: 1 | Multiples: 1
Cell Qty: 1000 (~1000 each)
Size: 0.100 · 0.100 · 0.100m | Aspect: 1.0 | Poisson: Yes
&MESH ID='Domain_small' IJK=10,10,10
      XB=-0.5000,0.5000,-0.5000,0.5000,-0.5000,0.5000 /
&DEVC ID='c11' QUANTITY='TEMPERATURE' XYZ=0.3937,0.3938,0.0000 /
&DEVC ID='c12' QUANTITY='TEMPERATURE' XYZ=0.3937,0.0437,0.0000 /
&DEVC ID='c13' QUANTITY='TEMPERATURE' XYZ=0.3937,-0.3062,0.0000 /
&DEVC ID='c21' QUANTITY='TEMPERATURE' XYZ=0.0437,0.3938,0.0000 /
&DEVC ID='c22' QUANTITY='TEMPERATURE' XYZ=0.0437,0.0437,0.0000 /
&DEVC ID='c23' QUANTITY='TEMPERATURE' XYZ=0.0437,-0.3062,0.0000 /
&DEVC ID='c31' QUANTITY='TEMPERATURE' XYZ=-0.3063,0.3938,0.0000 /
&DEVC ID='c32' QUANTITY='TEMPERATURE' XYZ=-0.3063,0.0437,0.0000 /

&TAIL /
