! Generated by BlenderFDS 6.0.0 on Blender 3.2.0 Beta
! Date: Sat, 21 May 2022, 13:47:13
! File: ···ds.verification/tests/geometries_export/./bl/xb_xyz_pb_geometry.blend

--- Case from Blender Scene: <xyz_center> | View Layer: <View Layer>

&HEAD CHID='xyz_center' TITLE='Test centers' /
&TIME T_END=1.0 /

--- Computational domain | MPI Processes: 1 | MESH Qty: 1 | Cell Qty: 1000

-- MPI Process: <0> | MESH Qty: 1 | Cell Qty: 1000
Cell Qty: 1000 | Size: 0.100·0.100·0.100m | Aspect: 1.0 | Poisson: Yes
&MESH ID='Domain_small' IJK=10,10,10
      XB=-0.5000,0.5000,-0.5000,0.5000,-0.5000,0.5000 MPI_PROCESS=0 /

--- Geometric namelists from Blender Collections
&DEVC ID='c11' QUANTITY='TEMPERATURE' XYZ=0.3937,0.3938,0.0000 /
&DEVC ID='c12' QUANTITY='TEMPERATURE' XYZ=0.3937,0.0437,0.0000 /
&DEVC ID='c13' QUANTITY='TEMPERATURE' XYZ=0.3937,-0.3062,0.0000 /
&DEVC ID='c21' QUANTITY='TEMPERATURE' XYZ=0.0437,0.3938,0.0000 /
&DEVC ID='c22' QUANTITY='TEMPERATURE' XYZ=0.0437,0.0437,0.0000 /
&DEVC ID='c23' QUANTITY='TEMPERATURE' XYZ=0.0437,-0.3062,0.0000 /
&DEVC ID='c31' QUANTITY='TEMPERATURE' XYZ=-0.3063,0.3938,0.0000 /
&DEVC ID='c32' QUANTITY='TEMPERATURE' XYZ=-0.3063,0.0437,0.0000 /

&TAIL /
