! Generated by BlenderFDS 6.0.0 on Blender 3.2.0 Beta
! Date: Sat, 21 May 2022, 13:46:58
! File: ···ds.verification/tests/geometries_export/./bl/xb_xyz_pb_geometry.blend

--- Case from Blender Scene: <xb_faces_plane_solidify> | View Layer: <View Layer>

&HEAD CHID='xb_faces_plane_solidify' TITLE='Test faces w solidified plane' /
&TIME T_END=1.0 /

--- Computational domain | MPI Processes: 1 | MESH Qty: 1 | Cell Qty: 8000

-- MPI Process: <0> | MESH Qty: 1 | Cell Qty: 8000
Cell Qty: 8000 | Size: 0.100·0.100·0.100m | Aspect: 1.0 | Poisson: Yes
&MESH ID='Domain' IJK=20,20,20 XB=-1.0000,1.0000,-1.0000,1.0000,-1.0000,1.0000
      MPI_PROCESS=0 /

--- Geometric namelists from Blender Collections
XB Faces: 6
&DEVC ID='Plane_faces_0' XB=-0.2218,0.7161,-0.2425,1.3731,-0.7671,-0.7671
      QUANTITY='TEMPERATURE' INITIAL_STATE=T /
&DEVC ID='Plane_faces_1' XB=-0.2218,1.4569,1.7830,1.7830,-1.2412,-0.3088
      QUANTITY='TEMPERATURE' INITIAL_STATE=T /
&DEVC ID='Plane_faces_2' XB=-0.2218,2.0488,-0.1929,2.2425,-1.2333,-1.2333
      QUANTITY='TEMPERATURE' INITIAL_STATE=T /
&DEVC ID='Plane_faces_3' XB=-0.0488,2.2218,-0.2425,2.1929,-0.7667,-0.7667
      QUANTITY='TEMPERATURE' INITIAL_STATE=T /
&DEVC ID='Plane_faces_4' XB=0.5431,2.2218,0.2170,0.2170,-1.6912,-0.7588
      QUANTITY='TEMPERATURE' INITIAL_STATE=T /
&DEVC ID='Plane_faces_5' XB=1.2839,2.2218,0.6269,2.2425,-1.2329,-1.2329
      QUANTITY='TEMPERATURE' INITIAL_STATE=T /

&TAIL /
