!!! Generated by BlenderFDS 6.0.0 on Blender 3.0.0
!!! Date: <lun, 10 gen 2022, 16:27:00>
!!! File: <...tests/blender_geometry_to_fds/bl/xb_xyz_pb_geometry.blend>
! --- Case from Blender Scene <xb_pixels_flat_modifiers>
&HEAD CHID='xb_pixels_flat_modifiers' TITLE='Test pixels of flat w modifiers' /
&TIME T_END=1.0 /

! --- Boundary conditions from related Blender Materials
&SURF ID='Material_red' RGB=255,0,0 /
 
! --- Geometric namelists from Blender Collection <Scene Collection>
&OBST ID='Base' SURF_ID='INERT'
      XB=-1.000000,1.000000,-1.000000,1.000000,-1.000000,-0.500000 /
! XB Pixels: 14 | Resolution: 0.100 m
&VENT SURF_ID='Material_red' ID='Circle_pixels_0'
      XB=0.899990,1.000010,0.199990,0.400010,-0.490000,-0.490000 /
&VENT SURF_ID='Material_red' ID='Circle_pixels_1'
      XB=0.799990,0.900010,-0.100010,0.500010,-0.490000,-0.490000 /
&VENT SURF_ID='Material_red' ID='Circle_pixels_2'
      XB=0.699990,0.800010,-0.200010,0.600010,-0.490000,-0.490000 /
&VENT SURF_ID='Material_red' ID='Circle_pixels_3'
      XB=0.599990,0.700010,-0.200010,0.700010,-0.490000,-0.490000 /
&VENT SURF_ID='Material_red' ID='Circle_pixels_4'
      XB=0.499990,0.600010,-0.300010,0.700010,-0.490000,-0.490000 /
&VENT SURF_ID='Material_red' ID='Circle_pixels_5'
      XB=0.299990,0.500010,-0.200010,0.700010,-0.490000,-0.490000 /
&VENT SURF_ID='Material_red' ID='Circle_pixels_6'
      XB=0.199990,0.300010,-0.200010,0.600010,-0.490000,-0.490000 /
&VENT SURF_ID='Material_red' ID='Circle_pixels_7'
      XB=0.099990,0.200010,-0.100010,0.500010,-0.490000,-0.490000 /
&VENT SURF_ID='Material_red' ID='Circle_pixels_8'
      XB=-0.000010,0.100010,-0.000010,0.500010,-0.490000,-0.490000 /
&VENT SURF_ID='Material_red' ID='Circle_pixels_9'
      XB=-0.100010,0.000010,-0.700010,-0.199990,-0.490000,-0.490000 /
&VENT SURF_ID='Material_red' ID='Circle_pixels_10'
      XB=-0.300010,-0.099990,-0.800010,0.000010,-0.490000,-0.490000 /
&VENT SURF_ID='Material_red' ID='Circle_pixels_11'
      XB=-0.600010,-0.299990,-0.900010,0.100010,-0.490000,-0.490000 /
&VENT SURF_ID='Material_red' ID='Circle_pixels_12'
      XB=-0.800010,-0.599990,-0.800010,0.000010,-0.490000,-0.490000 /
&VENT SURF_ID='Material_red' ID='Circle_pixels_13'
      XB=-0.900010,-0.799990,-0.600010,-0.099990,-0.490000,-0.490000 /
! MESH Cell Qty: 8000
! Cell Size: 0.100m · 0.100m · 0.100m | Aspect: 1.0 | Poisson: Yes
&MESH ID='Domain' IJK=20,20,20
      XB=-1.000000,1.000000,-1.000000,1.000000,-1.000000,1.000000 /

&TAIL /
 