! Generated by BlenderFDS 6.0.0 on Blender 3.2.0 Beta
! Date: Fri, 13 May 2022, 16:04:17
! File: ···rfds.verification/tests/geometries_export/bl/xb_xyz_pb_geometry.blend
--- Case from Blender Scene: <xb_voxels_solid_centered> | View Layer: <View Layer>
&HEAD CHID='xb_voxels_solid_centered' TITLE='Test voxel centering' /
&TIME T_END=1.0 /

--- Boundary conditions from Blender Materials
&SURF ID='Material' RGB=91,204,120 /

--- Geometric namelists from Blender Collections
MESH Qty: 1 | Splits: 1 | Multiples: 1
Cell Qty: 10400 (~10400 each)
Size: 0.100 · 0.100 · 0.100m | Aspect: 1.0 | Poisson: Yes
&MESH ID='Domain_large' IJK=26,20,20
      XB=-1.3000,1.3000,-1.0000,1.0000,-0.4000,1.6000 /

--- Blender Collection: <xy voxels>
XB Voxels: 7 | Resolution: 0.100 m
&OBST ID='xy_cc11_0' XB=-0.3001,-0.1999,-0.2501,-0.1499,-0.1001,0.0001
      SURF_ID='Material' /
&OBST ID='xy_cc11_1' XB=-0.4001,-0.0999,-0.3501,-0.2499,-0.1001,0.0001
      SURF_ID='Material' /
&OBST ID='xy_cc11_2' XB=-0.5001,0.0001,-0.4501,-0.3499,-0.1001,0.0001
      SURF_ID='Material' /
&OBST ID='xy_cc11_3' XB=-0.6001,0.1001,-0.5501,-0.4499,-0.1001,0.0001
      SURF_ID='Material' /
&OBST ID='xy_cc11_4' XB=-0.5001,0.0001,-0.6501,-0.5499,-0.1001,0.0001
      SURF_ID='Material' /
&OBST ID='xy_cc11_5' XB=-0.4001,-0.0999,-0.7501,-0.6499,-0.1001,0.0001
      SURF_ID='Material' /
&OBST ID='xy_cc11_6' XB=-0.3001,-0.1999,-0.8501,-0.7499,-0.1001,0.0001
      SURF_ID='Material' /
XB Voxels: 7 | Resolution: 0.100 m
&OBST ID='xy_cc12_0' XB=-0.3001,-0.1999,0.2499,0.3501,-0.0501,0.0501
      SURF_ID='Material' /
&OBST ID='xy_cc12_1' XB=-0.4001,-0.0999,0.1499,0.2501,-0.0501,0.0501
      SURF_ID='Material' /
&OBST ID='xy_cc12_2' XB=-0.5001,0.0001,0.0499,0.1501,-0.0501,0.0501
      SURF_ID='Material' /
&OBST ID='xy_cc12_3' XB=-0.6001,0.1001,-0.0501,0.0501,-0.0501,0.0501
      SURF_ID='Material' /
&OBST ID='xy_cc12_4' XB=-0.5001,0.0001,-0.1501,-0.0499,-0.0501,0.0501
      SURF_ID='Material' /
&OBST ID='xy_cc12_5' XB=-0.4001,-0.0999,-0.2501,-0.1499,-0.0501,0.0501
      SURF_ID='Material' /
&OBST ID='xy_cc12_6' XB=-0.3001,-0.1999,-0.3501,-0.2499,-0.0501,0.0501
      SURF_ID='Material' /
XB Voxels: 7 | Resolution: 0.100 m
&OBST ID='xy_cc13_0' XB=-0.3001,-0.1999,0.7499,0.8501,-0.0201,0.0801
      SURF_ID='Material' /
&OBST ID='xy_cc13_1' XB=-0.4001,-0.0999,0.6499,0.7501,-0.0201,0.0801
      SURF_ID='Material' /
&OBST ID='xy_cc13_2' XB=-0.5001,0.0001,0.5499,0.6501,-0.0201,0.0801
      SURF_ID='Material' /
&OBST ID='xy_cc13_3' XB=-0.6001,0.1001,0.4499,0.5501,-0.0201,0.0801
      SURF_ID='Material' /
&OBST ID='xy_cc13_4' XB=-0.5001,0.0001,0.3499,0.4501,-0.0201,0.0801
      SURF_ID='Material' /
&OBST ID='xy_cc13_5' XB=-0.4001,-0.0999,0.2499,0.3501,-0.0201,0.0801
      SURF_ID='Material' /
&OBST ID='xy_cc13_6' XB=-0.3001,-0.1999,0.1499,0.2501,-0.0201,0.0801
      SURF_ID='Material' /
XB Voxels: 5 | Resolution: 0.100 m
&OBST ID='xy_cc21_0' XB=-0.6801,-0.5799,-0.2551,-0.1549,-0.1001,0.0001
      SURF_ID='Material' /
&OBST ID='xy_cc21_1' XB=-0.7801,-0.4799,-0.3551,-0.2549,-0.1001,0.0001
      SURF_ID='Material' /
&OBST ID='xy_cc21_2' XB=-0.8801,-0.3799,-0.4551,-0.3549,-0.1001,0.0001
      SURF_ID='Material' /
&OBST ID='xy_cc21_3' XB=-0.7801,-0.4799,-0.5551,-0.4549,-0.1001,0.0001
      SURF_ID='Material' /
&OBST ID='xy_cc21_4' XB=-0.6801,-0.5799,-0.6551,-0.5549,-0.1001,0.0001
      SURF_ID='Material' /
XB Voxels: 5 | Resolution: 0.100 m
&OBST ID='xy_cc22_0' XB=-0.6801,-0.5799,0.1499,0.2501,-0.0501,0.0501
      SURF_ID='Material' /
&OBST ID='xy_cc22_1' XB=-0.7801,-0.4799,0.0499,0.1501,-0.0501,0.0501
      SURF_ID='Material' /
&OBST ID='xy_cc22_2' XB=-0.8801,-0.3799,-0.0501,0.0501,-0.0501,0.0501
      SURF_ID='Material' /
&OBST ID='xy_cc22_3' XB=-0.7801,-0.4799,-0.1501,-0.0499,-0.0501,0.0501
      SURF_ID='Material' /
&OBST ID='xy_cc22_4' XB=-0.6801,-0.5799,-0.2501,-0.1499,-0.0501,0.0501
      SURF_ID='Material' /
XB Voxels: 5 | Resolution: 0.100 m
&OBST ID='xy_cc23_0' XB=-0.6801,-0.5799,0.5549,0.6551,-0.0201,0.0801
      SURF_ID='Material' /
&OBST ID='xy_cc23_1' XB=-0.7801,-0.4799,0.4549,0.5551,-0.0201,0.0801
      SURF_ID='Material' /
&OBST ID='xy_cc23_2' XB=-0.8801,-0.3799,0.3549,0.4551,-0.0201,0.0801
      SURF_ID='Material' /
&OBST ID='xy_cc23_3' XB=-0.7801,-0.4799,0.2549,0.3551,-0.0201,0.0801
      SURF_ID='Material' /
&OBST ID='xy_cc23_4' XB=-0.6801,-0.5799,0.1549,0.2551,-0.0201,0.0801
      SURF_ID='Material' /
XB Voxels: 3 | Resolution: 0.100 m
&OBST ID='xy_cc31_0' XB=-1.0231,-0.9229,-0.1653,-0.0651,-0.1001,0.0001
      SURF_ID='Material' /
&OBST ID='xy_cc31_1' XB=-1.1231,-0.8229,-0.2653,-0.1651,-0.1001,0.0001
      SURF_ID='Material' /
&OBST ID='xy_cc31_2' XB=-1.0231,-0.9229,-0.3653,-0.2651,-0.1001,0.0001
      SURF_ID='Material' /
XB Voxels: 3 | Resolution: 0.100 m
&OBST ID='xy_cc32_0' XB=-1.0231,-0.9229,0.0499,0.1501,-0.0501,0.0501
      SURF_ID='Material' /
&OBST ID='xy_cc32_1' XB=-1.1231,-0.8229,-0.0501,0.0501,-0.0501,0.0501
      SURF_ID='Material' /
&OBST ID='xy_cc32_2' XB=-1.0231,-0.9229,-0.1501,-0.0499,-0.0501,0.0501
      SURF_ID='Material' /
XB Voxels: 3 | Resolution: 0.100 m
&OBST ID='xy_cc33_0' XB=-1.0231,-0.9229,0.2651,0.3653,-0.0201,0.0801
      SURF_ID='Material' /
&OBST ID='xy_cc33_1' XB=-1.1231,-0.8229,0.1651,0.2653,-0.0201,0.0801
      SURF_ID='Material' /
&OBST ID='xy_cc33_2' XB=-1.0231,-0.9229,0.0651,0.1653,-0.0201,0.0801
      SURF_ID='Material' /
XB Voxels: 7 | Resolution: 0.100 m
&OBST ID='xy_nc11_0' XB=0.4999,0.6001,-0.6001,-0.3999,-0.1001,0.0001
      SURF_ID='INERT' /
&OBST ID='xy_nc11_1' XB=0.3999,0.5001,-0.7001,-0.2999,-0.1001,0.0001
      SURF_ID='INERT' /
&OBST ID='xy_nc11_2' XB=0.2999,0.4001,-0.8001,-0.1999,-0.1001,0.0001
      SURF_ID='INERT' /
&OBST ID='xy_nc11_3' XB=0.1999,0.3001,-0.9001,-0.0999,-0.1001,0.0001
      SURF_ID='INERT' /
&OBST ID='xy_nc11_4' XB=0.0999,0.2001,-0.8001,-0.1999,-0.1001,0.0001
      SURF_ID='INERT' /
&OBST ID='xy_nc11_5' XB=-0.0001,0.1001,-0.7001,-0.2999,-0.1001,0.0001
      SURF_ID='INERT' /
&OBST ID='xy_nc11_6' XB=-0.1001,0.0001,-0.6001,-0.3999,-0.1001,0.0001
      SURF_ID='INERT' /
XB Voxels: 7 | Resolution: 0.100 m
&OBST ID='xy_nc12_0' XB=0.4999,0.6001,-0.1001,0.1001,-0.1001,0.0001
      SURF_ID='INERT' /
&OBST ID='xy_nc12_1' XB=0.3999,0.5001,-0.2001,0.2001,-0.1001,0.0001
      SURF_ID='INERT' /
&OBST ID='xy_nc12_2' XB=0.2999,0.4001,-0.3001,0.3001,-0.1001,0.0001
      SURF_ID='INERT' /
&OBST ID='xy_nc12_3' XB=0.1999,0.3001,-0.4001,0.4001,-0.1001,0.0001
      SURF_ID='INERT' /
&OBST ID='xy_nc12_4' XB=0.0999,0.2001,-0.3001,0.3001,-0.1001,0.0001
      SURF_ID='INERT' /
&OBST ID='xy_nc12_5' XB=-0.0001,0.1001,-0.2001,0.2001,-0.1001,0.0001
      SURF_ID='INERT' /
&OBST ID='xy_nc12_6' XB=-0.1001,0.0001,-0.1001,0.1001,-0.1001,0.0001
      SURF_ID='INERT' /
XB Voxels: 7 | Resolution: 0.100 m
&OBST ID='xy_nc13_0' XB=0.4999,0.6001,0.3999,0.6001,-0.0001,0.1001
      SURF_ID='INERT' /
&OBST ID='xy_nc13_1' XB=0.3999,0.5001,0.2999,0.7001,-0.0001,0.1001
      SURF_ID='INERT' /
&OBST ID='xy_nc13_2' XB=0.2999,0.4001,0.1999,0.8001,-0.0001,0.1001
      SURF_ID='INERT' /
&OBST ID='xy_nc13_3' XB=0.1999,0.3001,0.0999,0.9001,-0.0001,0.1001
      SURF_ID='INERT' /
&OBST ID='xy_nc13_4' XB=0.0999,0.2001,0.1999,0.8001,-0.0001,0.1001
      SURF_ID='INERT' /
&OBST ID='xy_nc13_5' XB=-0.0001,0.1001,0.2999,0.7001,-0.0001,0.1001
      SURF_ID='INERT' /
&OBST ID='xy_nc13_6' XB=-0.1001,0.0001,0.3999,0.6001,-0.0001,0.1001
      SURF_ID='INERT' /
XB Voxels: 5 | Resolution: 0.100 m
&OBST ID='xy_nc21_0' XB=0.7999,0.9001,-0.5001,-0.2999,-0.1001,0.0001
      SURF_ID='INERT' /
&OBST ID='xy_nc21_1' XB=0.6999,0.8001,-0.6001,-0.1999,-0.1001,0.0001
      SURF_ID='INERT' /
&OBST ID='xy_nc21_2' XB=0.5999,0.7001,-0.7001,-0.0999,-0.1001,0.0001
      SURF_ID='INERT' /
&OBST ID='xy_nc21_3' XB=0.4999,0.6001,-0.6001,-0.1999,-0.1001,0.0001
      SURF_ID='INERT' /
&OBST ID='xy_nc21_4' XB=0.3999,0.5001,-0.5001,-0.2999,-0.1001,0.0001
      SURF_ID='INERT' /
XB Voxels: 5 | Resolution: 0.100 m
&OBST ID='xy_nc22_0' XB=0.7999,0.9001,-0.1001,0.1001,-0.1001,0.0001
      SURF_ID='INERT' /
&OBST ID='xy_nc22_1' XB=0.6999,0.8001,-0.2001,0.2001,-0.1001,0.0001
      SURF_ID='INERT' /
&OBST ID='xy_nc22_2' XB=0.5999,0.7001,-0.3001,0.3001,-0.1001,0.0001
      SURF_ID='INERT' /
&OBST ID='xy_nc22_3' XB=0.4999,0.6001,-0.2001,0.2001,-0.1001,0.0001
      SURF_ID='INERT' /
&OBST ID='xy_nc22_4' XB=0.3999,0.5001,-0.1001,0.1001,-0.1001,0.0001
      SURF_ID='INERT' /
XB Voxels: 5 | Resolution: 0.100 m
&OBST ID='xy_nc23_0' XB=0.7999,0.9001,0.2999,0.5001,-0.0001,0.1001
      SURF_ID='INERT' /
&OBST ID='xy_nc23_1' XB=0.6999,0.8001,0.1999,0.6001,-0.0001,0.1001
      SURF_ID='INERT' /
&OBST ID='xy_nc23_2' XB=0.5999,0.7001,0.0999,0.7001,-0.0001,0.1001
      SURF_ID='INERT' /
&OBST ID='xy_nc23_3' XB=0.4999,0.6001,0.1999,0.6001,-0.0001,0.1001
      SURF_ID='INERT' /
&OBST ID='xy_nc23_4' XB=0.3999,0.5001,0.2999,0.5001,-0.0001,0.1001
      SURF_ID='INERT' /
XB Voxels: 3 | Resolution: 0.100 m
&OBST ID='xy_nc31_0' XB=0.8999,1.1001,-0.2001,-0.0999,-0.1001,0.0001
      SURF_ID='INERT' /
&OBST ID='xy_nc31_1' XB=0.7999,1.1001,-0.3001,-0.1999,-0.1001,0.0001
      SURF_ID='INERT' /
&OBST ID='xy_nc31_2' XB=0.8999,1.0001,-0.4001,-0.2999,-0.1001,0.0001
      SURF_ID='INERT' /
&OBST ID='xy_nc32' SURF_ID='INERT'
      XB=0.8999,1.1001,-0.1001,0.1001,-0.1001,0.0001 /
XB Voxels: 3 | Resolution: 0.100 m
&OBST ID='xy_nc33_0' XB=0.8999,1.0001,0.2999,0.4001,-0.0001,0.1001
      SURF_ID='INERT' /
&OBST ID='xy_nc33_1' XB=0.7999,1.1001,0.1999,0.3001,-0.0001,0.1001
      SURF_ID='INERT' /
&OBST ID='xy_nc33_2' XB=0.8999,1.1001,0.0999,0.2001,-0.0001,0.1001
      SURF_ID='INERT' /

--- Blender Collection: <xz voxels>
XB Voxels: 7 | Resolution: 0.100 m
&OBST ID='xz_cc11_0' XB=-0.3001,-0.1999,0.3911,0.4913,0.3491,0.4493
      SURF_ID='Material' /
&OBST ID='xz_cc11_1' XB=-0.4001,-0.0999,0.3911,0.4913,0.2491,0.3493
      SURF_ID='Material' /
&OBST ID='xz_cc11_2' XB=-0.5001,0.0001,0.3911,0.4913,0.1491,0.2493
      SURF_ID='Material' /
&OBST ID='xz_cc11_3' XB=-0.6001,0.1001,0.3911,0.4913,0.0491,0.1493
      SURF_ID='Material' /
&OBST ID='xz_cc11_4' XB=-0.5001,0.0001,0.3911,0.4913,-0.0509,0.0493
      SURF_ID='Material' /
&OBST ID='xz_cc11_5' XB=-0.4001,-0.0999,0.3911,0.4913,-0.1509,-0.0507
      SURF_ID='Material' /
&OBST ID='xz_cc11_6' XB=-0.3001,-0.1999,0.3911,0.4913,-0.2509,-0.1507
      SURF_ID='Material' /
XB Voxels: 7 | Resolution: 0.100 m
&OBST ID='xz_cc12_0' XB=-0.3001,-0.1999,0.3411,0.4413,0.8491,0.9493
      SURF_ID='Material' /
&OBST ID='xz_cc12_1' XB=-0.4001,-0.0999,0.3411,0.4413,0.7491,0.8493
      SURF_ID='Material' /
&OBST ID='xz_cc12_2' XB=-0.5001,0.0001,0.3411,0.4413,0.6491,0.7493
      SURF_ID='Material' /
&OBST ID='xz_cc12_3' XB=-0.6001,0.1001,0.3411,0.4413,0.5491,0.6493
      SURF_ID='Material' /
&OBST ID='xz_cc12_4' XB=-0.5001,0.0001,0.3411,0.4413,0.4491,0.5493
      SURF_ID='Material' /
&OBST ID='xz_cc12_5' XB=-0.4001,-0.0999,0.3411,0.4413,0.3491,0.4493
      SURF_ID='Material' /
&OBST ID='xz_cc12_6' XB=-0.3001,-0.1999,0.3411,0.4413,0.2491,0.3493
      SURF_ID='Material' /
XB Voxels: 7 | Resolution: 0.100 m
&OBST ID='xz_cc13_0' XB=-0.3001,-0.1999,0.3111,0.4113,1.3491,1.4493
      SURF_ID='Material' /
&OBST ID='xz_cc13_1' XB=-0.4001,-0.0999,0.3111,0.4113,1.2491,1.3493
      SURF_ID='Material' /
&OBST ID='xz_cc13_2' XB=-0.5001,0.0001,0.3111,0.4113,1.1491,1.2493
      SURF_ID='Material' /
&OBST ID='xz_cc13_3' XB=-0.6001,0.1001,0.3111,0.4113,1.0491,1.1493
      SURF_ID='Material' /
&OBST ID='xz_cc13_4' XB=-0.5001,0.0001,0.3111,0.4113,0.9491,1.0493
      SURF_ID='Material' /
&OBST ID='xz_cc13_5' XB=-0.4001,-0.0999,0.3111,0.4113,0.8491,0.9493
      SURF_ID='Material' /
&OBST ID='xz_cc13_6' XB=-0.3001,-0.1999,0.3111,0.4113,0.7491,0.8493
      SURF_ID='Material' /
XB Voxels: 5 | Resolution: 0.100 m
&OBST ID='xz_cc21_0' XB=-0.6801,-0.5799,0.3911,0.4913,0.3441,0.4443
      SURF_ID='Material' /
&OBST ID='xz_cc21_1' XB=-0.7801,-0.4799,0.3911,0.4913,0.2441,0.3443
      SURF_ID='Material' /
&OBST ID='xz_cc21_2' XB=-0.8801,-0.3799,0.3911,0.4913,0.1441,0.2443
      SURF_ID='Material' /
&OBST ID='xz_cc21_3' XB=-0.7801,-0.4799,0.3911,0.4913,0.0441,0.1443
      SURF_ID='Material' /
&OBST ID='xz_cc21_4' XB=-0.6801,-0.5799,0.3911,0.4913,-0.0559,0.0443
      SURF_ID='Material' /
XB Voxels: 5 | Resolution: 0.100 m
&OBST ID='xz_cc22_0' XB=-0.6801,-0.5799,0.3411,0.4413,0.7491,0.8493
      SURF_ID='Material' /
&OBST ID='xz_cc22_1' XB=-0.7801,-0.4799,0.3411,0.4413,0.6491,0.7493
      SURF_ID='Material' /
&OBST ID='xz_cc22_2' XB=-0.8801,-0.3799,0.3411,0.4413,0.5491,0.6493
      SURF_ID='Material' /
&OBST ID='xz_cc22_3' XB=-0.7801,-0.4799,0.3411,0.4413,0.4491,0.5493
      SURF_ID='Material' /
&OBST ID='xz_cc22_4' XB=-0.6801,-0.5799,0.3411,0.4413,0.3491,0.4493
      SURF_ID='Material' /
XB Voxels: 5 | Resolution: 0.100 m
&OBST ID='xz_cc23_0' XB=-0.6801,-0.5799,0.3111,0.4113,1.1541,1.2543
      SURF_ID='Material' /
&OBST ID='xz_cc23_1' XB=-0.7801,-0.4799,0.3111,0.4113,1.0541,1.1543
      SURF_ID='Material' /
&OBST ID='xz_cc23_2' XB=-0.8801,-0.3799,0.3111,0.4113,0.9541,1.0543
      SURF_ID='Material' /
&OBST ID='xz_cc23_3' XB=-0.7801,-0.4799,0.3111,0.4113,0.8541,0.9543
      SURF_ID='Material' /
&OBST ID='xz_cc23_4' XB=-0.6801,-0.5799,0.3111,0.4113,0.7541,0.8543
      SURF_ID='Material' /
XB Voxels: 3 | Resolution: 0.100 m
&OBST ID='xz_cc31_0' XB=-1.0231,-0.9229,0.3911,0.4913,0.4339,0.5341
      SURF_ID='Material' /
&OBST ID='xz_cc31_1' XB=-1.1231,-0.8229,0.3911,0.4913,0.3339,0.4341
      SURF_ID='Material' /
&OBST ID='xz_cc31_2' XB=-1.0231,-0.9229,0.3911,0.4913,0.2339,0.3341
      SURF_ID='Material' /
XB Voxels: 3 | Resolution: 0.100 m
&OBST ID='xz_cc32_0' XB=-1.0231,-0.9229,0.3411,0.4413,0.6491,0.7493
      SURF_ID='Material' /
&OBST ID='xz_cc32_1' XB=-1.1231,-0.8229,0.3411,0.4413,0.5491,0.6493
      SURF_ID='Material' /
&OBST ID='xz_cc32_2' XB=-1.0231,-0.9229,0.3411,0.4413,0.4491,0.5493
      SURF_ID='Material' /
XB Voxels: 3 | Resolution: 0.100 m
&OBST ID='xz_cc33_0' XB=-1.0231,-0.9229,0.3111,0.4113,0.8643,0.9645
      SURF_ID='Material' /
&OBST ID='xz_cc33_1' XB=-1.1231,-0.8229,0.3111,0.4113,0.7643,0.8645
      SURF_ID='Material' /
&OBST ID='xz_cc33_2' XB=-1.0231,-0.9229,0.3111,0.4113,0.6643,0.7645
      SURF_ID='Material' /
XB Voxels: 7 | Resolution: 0.100 m
&OBST ID='xz_nc11_0' XB=0.4999,0.6001,0.3999,0.5001,-0.0001,0.2001
      SURF_ID='INERT' /
&OBST ID='xz_nc11_1' XB=0.3999,0.5001,0.3999,0.5001,-0.1001,0.3001
      SURF_ID='INERT' /
&OBST ID='xz_nc11_2' XB=0.2999,0.4001,0.3999,0.5001,-0.2001,0.4001
      SURF_ID='INERT' /
&OBST ID='xz_nc11_3' XB=0.1999,0.3001,0.3999,0.5001,-0.3001,0.5001
      SURF_ID='INERT' /
&OBST ID='xz_nc11_4' XB=0.0999,0.2001,0.3999,0.5001,-0.2001,0.4001
      SURF_ID='INERT' /
&OBST ID='xz_nc11_5' XB=-0.0001,0.1001,0.3999,0.5001,-0.1001,0.3001
      SURF_ID='INERT' /
&OBST ID='xz_nc11_6' XB=-0.1001,0.0001,0.3999,0.5001,-0.0001,0.2001
      SURF_ID='INERT' /
XB Voxels: 7 | Resolution: 0.100 m
&OBST ID='xz_nc12_0' XB=0.4999,0.6001,0.2999,0.4001,0.4999,0.7001
      SURF_ID='INERT' /
&OBST ID='xz_nc12_1' XB=0.3999,0.5001,0.2999,0.4001,0.3999,0.8001
      SURF_ID='INERT' /
&OBST ID='xz_nc12_2' XB=0.2999,0.4001,0.2999,0.4001,0.2999,0.9001
      SURF_ID='INERT' /
&OBST ID='xz_nc12_3' XB=0.1999,0.3001,0.2999,0.4001,0.1999,1.0001
      SURF_ID='INERT' /
&OBST ID='xz_nc12_4' XB=0.0999,0.2001,0.2999,0.4001,0.2999,0.9001
      SURF_ID='INERT' /
&OBST ID='xz_nc12_5' XB=-0.0001,0.1001,0.2999,0.4001,0.3999,0.8001
      SURF_ID='INERT' /
&OBST ID='xz_nc12_6' XB=-0.1001,0.0001,0.2999,0.4001,0.4999,0.7001
      SURF_ID='INERT' /
XB Voxels: 7 | Resolution: 0.100 m
&OBST ID='xz_nc13_0' XB=0.4999,0.6001,0.2999,0.4001,0.9999,1.2001
      SURF_ID='INERT' /
&OBST ID='xz_nc13_1' XB=0.3999,0.5001,0.2999,0.4001,0.8999,1.3001
      SURF_ID='INERT' /
&OBST ID='xz_nc13_2' XB=0.2999,0.4001,0.2999,0.4001,0.7999,1.4001
      SURF_ID='INERT' /
&OBST ID='xz_nc13_3' XB=0.1999,0.3001,0.2999,0.4001,0.6999,1.5001
      SURF_ID='INERT' /
&OBST ID='xz_nc13_4' XB=0.0999,0.2001,0.2999,0.4001,0.7999,1.4001
      SURF_ID='INERT' /
&OBST ID='xz_nc13_5' XB=-0.0001,0.1001,0.2999,0.4001,0.8999,1.3001
      SURF_ID='INERT' /
&OBST ID='xz_nc13_6' XB=-0.1001,0.0001,0.2999,0.4001,0.9999,1.2001
      SURF_ID='INERT' /
XB Voxels: 5 | Resolution: 0.100 m
&OBST ID='xz_nc21_0' XB=0.7999,0.9001,0.3999,0.5001,0.0999,0.3001
      SURF_ID='INERT' /
&OBST ID='xz_nc21_1' XB=0.6999,0.8001,0.3999,0.5001,-0.0001,0.4001
      SURF_ID='INERT' /
&OBST ID='xz_nc21_2' XB=0.5999,0.7001,0.3999,0.5001,-0.1001,0.5001
      SURF_ID='INERT' /
&OBST ID='xz_nc21_3' XB=0.4999,0.6001,0.3999,0.5001,-0.0001,0.4001
      SURF_ID='INERT' /
&OBST ID='xz_nc21_4' XB=0.3999,0.5001,0.3999,0.5001,0.0999,0.3001
      SURF_ID='INERT' /
XB Voxels: 5 | Resolution: 0.100 m
&OBST ID='xz_nc22_0' XB=0.7999,0.9001,0.2999,0.4001,0.4999,0.7001
      SURF_ID='INERT' /
&OBST ID='xz_nc22_1' XB=0.6999,0.8001,0.2999,0.4001,0.3999,0.8001
      SURF_ID='INERT' /
&OBST ID='xz_nc22_2' XB=0.5999,0.7001,0.2999,0.4001,0.2999,0.9001
      SURF_ID='INERT' /
&OBST ID='xz_nc22_3' XB=0.4999,0.6001,0.2999,0.4001,0.3999,0.8001
      SURF_ID='INERT' /
&OBST ID='xz_nc22_4' XB=0.3999,0.5001,0.2999,0.4001,0.4999,0.7001
      SURF_ID='INERT' /
XB Voxels: 5 | Resolution: 0.100 m
&OBST ID='xz_nc23_0' XB=0.7999,0.9001,0.2999,0.4001,0.8999,1.1001
      SURF_ID='INERT' /
&OBST ID='xz_nc23_1' XB=0.6999,0.8001,0.2999,0.4001,0.7999,1.2001
      SURF_ID='INERT' /
&OBST ID='xz_nc23_2' XB=0.5999,0.7001,0.2999,0.4001,0.6999,1.3001
      SURF_ID='INERT' /
&OBST ID='xz_nc23_3' XB=0.4999,0.6001,0.2999,0.4001,0.7999,1.2001
      SURF_ID='INERT' /
&OBST ID='xz_nc23_4' XB=0.3999,0.5001,0.2999,0.4001,0.8999,1.1001
      SURF_ID='INERT' /
XB Voxels: 3 | Resolution: 0.100 m
&OBST ID='xz_nc31_0' XB=0.8999,1.1001,0.3999,0.5001,0.3999,0.5001
      SURF_ID='INERT' /
&OBST ID='xz_nc31_1' XB=0.7999,1.1001,0.3999,0.5001,0.2999,0.4001
      SURF_ID='INERT' /
&OBST ID='xz_nc31_2' XB=0.8999,1.0001,0.3999,0.5001,0.1999,0.3001
      SURF_ID='INERT' /
&OBST ID='xz_nc32' SURF_ID='INERT' XB=0.8999,1.1001,0.2999,0.4001,0.4999,0.7001 /
XB Voxels: 3 | Resolution: 0.100 m
&OBST ID='xz_nc33_0' XB=0.8999,1.0001,0.2999,0.4001,0.8999,1.0001
      SURF_ID='INERT' /
&OBST ID='xz_nc33_1' XB=0.7999,1.1001,0.2999,0.4001,0.7999,0.9001
      SURF_ID='INERT' /
&OBST ID='xz_nc33_2' XB=0.8999,1.1001,0.2999,0.4001,0.6999,0.8001
      SURF_ID='INERT' /

&TAIL /
