! Generated by BlenderFDS 6.0.0 on Blender 3.2.0 Beta
! Date: Sun, 05 Jun 2022, 22:24:40
! File: /tmp/tmpscelvm6t/thouse5.blend

--- Case from Blender Scene: <thouse5> | View Layer: <ViewLayer>

&HEAD CHID='thouse5' TITLE='Town House Kitchen Fire' /
&TIME T_END=0.1 /
&REAC FUEL='PROPANE' CO_YIELD=0.500 SOOT_YIELD=0.010 /
&DUMP NFRAMES=610 DT_PL3D=12.2 DT_SL3D=0.1 /

--- Free text from Blender Text: <New Text>

-- From: <thouse5.fds>
&SPEC ID='WATER VAPOR' /
&MATL ID='GYPSUM PLASTER' FYI='Quintiere, Fire Behavior' CONDUCTIVITY=0.48
      SPECIFIC_HEAT=0.84 DENSITY=1440.0 /
&MATL ID='FABRIC' FYI='Properties completely fabricated' SPECIFIC_HEAT=1.0
      CONDUCTIVITY=0.1 DENSITY=100.0 N_REACTIONS=1 NU_SPEC=1.0 SPEC_ID='PROPANE'
      REFERENCE_TEMPERATURE=350.0 HEAT_OF_REACTION=3000.0
      HEAT_OF_COMBUSTION=15000.0 /
&MATL ID='FOAM' FYI='Properties completely fabricated' SPECIFIC_HEAT=1.0
      CONDUCTIVITY=0.05 DENSITY=40.0 N_REACTIONS=1 NU_SPEC=1.0 SPEC_ID='PROPANE'
      REFERENCE_TEMPERATURE=350.0 HEAT_OF_REACTION=1500.0
      HEAT_OF_COMBUSTION=30000.0 /
&MATL ID='CELLULOSE' CONDUCTIVITY_RAMP='k_cell' SPECIFIC_HEAT=2.3 DENSITY=400.0
      N_REACTIONS=1 A=2.8E+19 E=2.424E+05 HEAT_OF_REACTION=0.0 NU_MATL=1.0
      MATL_ID='ACTIVE' /
&MATL ID='ACTIVE' EMISSIVITY=1.0 CONDUCTIVITY_RAMP='k_cell' SPECIFIC_HEAT=2.3
      DENSITY=400.0 N_REACTIONS=2 A(1:2)=1.30E+10,3.23E+14
      E(1:2)=1.505E+05,1.965E+05 HEAT_OF_REACTION(1:2)=418.0,418.0
      NU_SPEC(1,1:2)=0.65,1.00 SPEC_ID(1,1:2)='PROPANE','PROPANE' NU_MATL=0.35
      MATL_ID='CHAR' /
&MATL ID='WATER' EMISSIVITY=1.0 DENSITY=1000.0 CONDUCTIVITY=0.6
      SPECIFIC_HEAT=4.19 N_REACTIONS=1 A=1.0E+20 E=1.62E+05 NU_SPEC=1.0
      SPEC_ID='WATER VAPOR' HEAT_OF_REACTION=2260.0 /
&MATL ID='LIGNIN' EMISSIVITY=1.0 DENSITY=550.0 CONDUCTIVITY=0.1
      SPECIFIC_HEAT=1.1 /
&MATL ID='CHAR' EMISSIVITY=1.0 DENSITY=140.0 CONDUCTIVITY_RAMP='k_char'
      SPECIFIC_HEAT=1.1 /
&RAMP ID='k_cell' T=20.0 F=0.15 /
&RAMP ID='k_cell' T=500.0 F=0.29 /
&RAMP ID='k_char' T=20.0 F=0.08 /
&RAMP ID='k_char' T=900.0 F=0.25 /
&PART ID='smoke' MASSLESS=T SAMPLING_FACTOR=1 /
&ISOF QUANTITY='TEMPERATURE' VALUE(1:2)=30.0,100.0 /
&BNDF QUANTITY='NET HEAT FLUX' /
&BNDF QUANTITY='BURNING RATE' /
&BNDF QUANTITY='WALL TEMPERATURE' /
&BNDF QUANTITY='NET HEAT FLUX' CELL_CENTERED=T /
&BNDF QUANTITY='BURNING RATE' CELL_CENTERED=T /
&BNDF QUANTITY='WALL TEMPERATURE' CELL_CENTERED=T /

--- Boundary conditions from Blender Materials

&SURF ID='BURNER' RGB=204,204,204 HRRPUA=3000.0 PART_ID='smoke' /
&SURF ID='CARPET' FYI='Properties completely fabricated' RGB=150,200,255
      BURN_AWAY=F MATL_ID='FABRIC' THICKNESS=0.002 /
&SURF ID='GYPSUM BOARD' DEFAULT=T RGB=200,200,200 MATL_ID='GYPSUM PLASTER'
      THICKNESS=0.012 /
&SURF ID='OAK' RGB=104,52,0 STRETCH_FACTOR=1.0 CELL_SIZE_FACTOR=0.5
      MATL_ID(1,1:3)='CELLULOSE','WATER','LIGNIN'
      MATL_MASS_FRACTION(1,1:3)=0.70,0.10,0.20 THICKNESS=0.02 /
&SURF ID='OAK PANEL' RGB=155,52,0 STRETCH_FACTOR=1.0 CELL_SIZE_FACTOR=0.5
      MATL_ID(1,1:3)='CELLULOSE','WATER','LIGNIN'
      MATL_MASS_FRACTION(1,1:3)=0.70,0.10,0.20 THICKNESS=0.003 /
&SURF ID='PINE' RGB=173,148,112 STRETCH_FACTOR=1.0 CELL_SIZE_FACTOR=0.5
      MATL_ID(1,1:3)='CELLULOSE','WATER','LIGNIN'
      MATL_MASS_FRACTION(1,1:3)=0.70,0.10,0.20 THICKNESS=0.02 /
&SURF ID='UPHOLSTERY' FYI='Properties completely fabricated' RGB=151,96,88
      BURN_AWAY=F MATL_ID(1:2,1)='FABRIC','FOAM' THICKNESS(1:2)=0.002,0.100 /

--- Computational domain | MPI Processes: 1 | MESH Qty: 1 | Cell Qty: 23040

-- MPI Process: <0> | MESH Qty: 1 | Cell Qty: 23040
Cell Qty: 23040 | Size: 0.267·0.200·0.200m | Aspect: 1.3 | Poisson: Yes
&MESH ID='New MESH' IJK=24,40,24 XB=0.0000,6.4000,0.0000,8.0000,0.0000,4.8000
      MPI_PROCESS=0 /

--- Geometric namelists from Blender Collections

-- Blender Collection: <New Obstacles>
&OBST ID='New OBST' SURF_ID='OAK PANEL'
      XB=0.0000,1.0667,2.5000,2.8000,1.5000,2.3000 /
&OBST ID='New OBST.001' SURF_ID='OAK PANEL'
      XB=0.0000,0.2667,0.3000,2.8000,1.5000,2.3000 /
&OBST ID='New OBST.002' SURF_ID='GYPSUM BOARD'
      XB=0.0000,3.6000,2.8000,3.8000,0.0000,2.3000 /
&OBST ID='New OBST.003' SURF_ID='OAK PANEL'
      XB=2.4000,3.0667,0.0000,1.8000,0.0000,0.9000 /
&OBST ID='New OBST.004' SURF_ID='OAK PANEL'
      XB=0.0000,2.4000,0.0000,0.8000,0.0000,0.9000 /
&OBST ID='New OBST.005' SURF_ID='OAK PANEL'
      XB=0.0000,0.6667,0.8000,2.8000,0.0000,0.9000 /
&OBST ID='New OBST.006' SURF_ID='GYPSUM BOARD'
      XB=3.4667,5.2000,3.6250,3.7500,2.0000,2.3000 /
&OBST ID='New OBST.007' SURF_ID='GYPSUM BOARD'
      XB=5.0667,5.2000,3.6250,5.5000,0.0000,2.3000 /
&OBST ID='New OBST.008' XB=5.2000,6.4000,6.5000,6.8000,0.0000,0.2000
      SURF_ID6='GYPSUM BOARD','GYPSUM BOARD','GYPSUM BOARD','CARPET',
      'GYPSUM BOARD','CARPET' /
&OBST ID='New OBST.009' XB=5.2000,6.4000,6.3000,6.5000,0.0000,0.4000
      SURF_ID6='GYPSUM BOARD','GYPSUM BOARD','GYPSUM BOARD','CARPET',
      'GYPSUM BOARD','CARPET' /
&OBST ID='New OBST.010' XB=5.2000,6.4000,6.0000,6.3000,0.0000,0.6000
      SURF_ID6='GYPSUM BOARD','GYPSUM BOARD','GYPSUM BOARD','CARPET',
      'GYPSUM BOARD','CARPET' /
&OBST ID='New OBST.011' XB=5.2000,6.4000,5.7500,6.0000,0.0000,0.8000
      SURF_ID6='GYPSUM BOARD','GYPSUM BOARD','GYPSUM BOARD','CARPET',
      'GYPSUM BOARD','CARPET' /
&OBST ID='New OBST.012' XB=5.2000,6.4000,5.5000,5.7500,0.0000,1.0000
      SURF_ID6='GYPSUM BOARD','GYPSUM BOARD','GYPSUM BOARD','CARPET',
      'GYPSUM BOARD','CARPET' /
&OBST ID='New OBST.013' XB=5.2000,6.4000,5.2500,5.5000,0.0000,1.2000
      SURF_ID6='GYPSUM BOARD','GYPSUM BOARD','GYPSUM BOARD','CARPET',
      'GYPSUM BOARD','CARPET' /
&OBST ID='New OBST.014' XB=5.2000,6.4000,5.0000,5.2500,0.0000,1.4000
      SURF_ID6='GYPSUM BOARD','GYPSUM BOARD','GYPSUM BOARD','CARPET',
      'GYPSUM BOARD','CARPET' /
&OBST ID='New OBST.015' XB=5.2000,6.4000,4.7500,5.0000,0.0000,1.6000
      SURF_ID6='GYPSUM BOARD','GYPSUM BOARD','GYPSUM BOARD','CARPET',
      'GYPSUM BOARD','CARPET' /
&OBST ID='New OBST.016' XB=5.2000,6.4000,4.5000,4.7500,0.0000,1.8000
      SURF_ID6='GYPSUM BOARD','GYPSUM BOARD','GYPSUM BOARD','CARPET',
      'GYPSUM BOARD','CARPET' /
&OBST ID='New OBST.017' XB=5.2000,6.4000,4.2500,4.5000,0.0000,2.0000
      SURF_ID6='GYPSUM BOARD','GYPSUM BOARD','GYPSUM BOARD','CARPET',
      'GYPSUM BOARD','CARPET' /
&OBST ID='New OBST.018' XB=5.2000,6.4000,4.0000,4.2500,0.0000,2.2000
      SURF_ID6='GYPSUM BOARD','GYPSUM BOARD','GYPSUM BOARD','CARPET',
      'GYPSUM BOARD','CARPET' /
&OBST ID='New OBST.019' XB=5.2000,6.4000,3.6000,4.0000,0.0000,2.5000
      SURF_ID6='GYPSUM BOARD','GYPSUM BOARD','GYPSUM BOARD','CARPET','CARPET',
      'CARPET' /
&OBST ID='New OBST.020' SURF_ID='GYPSUM BOARD'
      XB=5.2000,6.4000,2.3750,3.0000,2.5000,4.8000 /
&OBST ID='New OBST.021' SURF_ID='GYPSUM BOARD'
      XB=5.0667,5.2000,4.3000,8.0000,2.5000,4.8000 /
&OBST ID='New OBST.022' XB=5.2000,6.4000,6.2500,8.0000,2.3000,4.8000 /
&OBST ID='New OBST.023' XB=5.2000,6.4000,6.0000,6.2500,2.6000,4.8000 /
&OBST ID='New OBST.024' XB=5.2000,6.4000,5.7500,6.0000,2.8000,4.8000 /
&OBST ID='New OBST.025' XB=5.2000,6.4000,5.5000,5.7500,3.0000,4.8000 /
&OBST ID='New OBST.026' XB=5.2000,6.4000,5.2500,5.5000,3.2000,4.8000 /
&OBST ID='New OBST.027' XB=0.0000,5.2000,0.0000,8.0000,2.3000,2.5000
      SURF_IDS='CARPET','GYPSUM BOARD','GYPSUM BOARD' /
&OBST ID='New OBST.028' XB=2.9333,3.0667,0.0000,2.5000,2.5000,4.8000 /
&OBST ID='New OBST.029' XB=0.0000,4.0000,3.5000,4.4000,2.5000,4.8000 /
&OBST ID='New OBST.030' XB=5.2000,6.4000,0.0000,3.6000,2.3000,2.5000
      SURF_IDS='CARPET','GYPSUM BOARD','GYPSUM BOARD' /
&OBST ID='New OBST.031' XB=4.0000,5.0667,4.2500,4.3750,4.4000,4.8000 /
&OBST ID='New OBST.032' XB=3.0667,4.0000,2.4000,2.5000,2.5000,4.8000 /
&OBST ID='New OBST.033' XB=3.8667,4.0000,2.5000,3.5000,4.4000,4.8000 /
&OBST ID='New OBST.034' XB=4.0000,5.2000,2.3750,2.5000,4.4000,4.8000 /
&OBST ID='New OBST.035' SURF_ID='OAK'
      XB=4.0000,5.0667,4.3000,4.4000,2.5000,4.4000 THICKEN=T /
&OBST ID='New OBST.036' SURF_ID='UPHOLSTERY'
      XB=0.6667,2.6667,4.0000,4.1000,0.3000,1.0000 /
&OBST ID='New OBST.037' SURF_ID='UPHOLSTERY'
      XB=0.6667,2.6667,4.0000,4.6000,0.0000,0.3000 /
&OBST ID='New OBST.038' SURF_ID='UPHOLSTERY'
      XB=0.6667,2.6667,4.1000,4.6000,0.3000,0.5000 /
&OBST ID='New OBST.039' SURF_ID='UPHOLSTERY'
      XB=0.6667,0.8000,4.1000,4.6000,0.5000,0.6000 /
&OBST ID='New OBST.040' SURF_ID='UPHOLSTERY'
      XB=2.5333,2.6667,4.1000,4.6000,0.5000,0.6000 /
&OBST ID='New OBST.041' SURF_ID='UPHOLSTERY'
      XB=3.2000,3.5000,5.0000,7.0000,0.0000,1.0000 /
&OBST ID='New OBST.042' SURF_ID='UPHOLSTERY'
      XB=2.6667,3.3333,5.0000,7.0000,0.3000,0.5000 /
&OBST ID='New OBST.043' SURF_ID='UPHOLSTERY'
      XB=2.6667,3.3333,5.0000,7.0000,0.0000,0.3000 /
&OBST ID='New OBST.044' SURF_ID='UPHOLSTERY'
      XB=2.6667,3.2000,6.9000,7.0000,0.5000,0.6000 /
&OBST ID='New OBST.045' SURF_ID='UPHOLSTERY'
      XB=2.6667,3.2000,5.0000,5.1000,0.5000,0.6000 /
&OBST ID='New OBST.046' SURF_ID='UPHOLSTERY'
      XB=0.6667,0.8000,7.6000,7.9000,0.5000,0.6000 /
&OBST ID='New OBST.047' SURF_ID='UPHOLSTERY'
      XB=0.6667,1.4667,7.8000,8.0000,0.5000,1.0000 /
&OBST ID='New OBST.048' SURF_ID='UPHOLSTERY'
      XB=0.6667,1.4667,7.4000,8.0000,0.0000,0.5000 /
&OBST ID='New OBST.049' SURF_ID='UPHOLSTERY'
      XB=1.3333,1.4667,7.6000,7.9000,0.5000,0.6000 /
&OBST ID='New OBST.050' SURF_ID='UPHOLSTERY'
      XB=2.2667,2.4000,7.6000,7.9000,0.5000,0.6000 /
&OBST ID='New OBST.051' SURF_ID='UPHOLSTERY'
      XB=2.2667,3.0667,7.8000,8.0000,0.5000,1.0000 /
&OBST ID='New OBST.052' SURF_ID='UPHOLSTERY'
      XB=2.2667,3.0667,7.4000,8.0000,0.0000,0.5000 /
&OBST ID='New OBST.053' SURF_ID='UPHOLSTERY'
      XB=2.9333,3.0667,7.6000,7.9000,0.5000,0.6000 /
&OBST ID='New OBST.054' SURF_ID='OAK'
      XB=4.9333,5.0667,0.6000,0.7000,0.0000,0.7000 THICKEN=T /
&OBST ID='New OBST.055' SURF_ID='OAK'
      XB=5.7333,5.8667,0.6000,0.7000,0.0000,0.7000 THICKEN=T /
&OBST ID='New OBST.056' SURF_ID='OAK'
      XB=4.9333,5.0667,2.0000,2.1000,0.0000,0.7000 THICKEN=T /
&OBST ID='New OBST.057' SURF_ID='OAK'
      XB=5.7333,5.8667,2.0000,2.1000,0.0000,0.7000 THICKEN=T /
&OBST ID='New OBST.058' SURF_ID='OAK'
      XB=4.9333,5.8667,0.6000,2.1000,0.7000,0.8000 THICKEN=T /
&OBST ID='New OBST.059' SURF_ID='OAK'
      XB=2.4000,2.9333,1.0000,1.6000,2.5000,3.5000 /
&OBST ID='New OBST.060' SURF_ID='UPHOLSTERY'
      XB=0.0000,0.8000,0.2000,1.8000,2.5000,2.8000 /
&OBST ID='New OBST.061' SURF_ID='OAK'
      XB=3.0667,3.6000,1.0000,1.6000,2.5000,3.5000 /
&OBST ID='New OBST.062' SURF_ID='UPHOLSTERY'
      XB=5.6000,6.4000,0.2000,1.8000,2.5000,2.8000 /
&OBST ID='New OBST.063' SURF_ID='OAK'
      XB=0.0000,0.4000,5.7000,7.3000,2.5000,3.3000 /
&OBST ID='New OBST.064' SURF_ID='OAK'
      XB=4.6667,5.0667,5.7000,6.8000,2.5000,3.5000 /
&OBST ID='New OBST.065' SURF_ID='UPHOLSTERY'
      XB=1.2000,2.6667,4.3000,6.2000,2.5000,2.8000 /
&OBST ID='New OBST.066' SURF_ID='OAK'
      XB=4.6667,5.0667,4.1000,5.6000,0.0000,0.7000 /
&OBST ID='New OBST.067' SURF_ID='OAK'
      XB=0.0000,0.5333,5.5000,6.8000,0.0000,1.3000 /
&VENT ID='New VENT' SURF_ID='CARPET'
      XB=0.0000,6.4000,3.6000,8.0000,0.0000,0.0000 /
&VENT ID='New VENT.001' SURF_ID='PINE'
      XB=0.0000,6.4000,0.0000,3.6000,0.0000,0.0000 /
&VENT ID='New VENT.002' SURF_ID='BURNER'
      XB=0.0000,0.3000,0.8000,1.8000,0.9000,0.9000 /
&VENT ID='New VENT.003' SURF_ID='OPEN'
      XB=3.5000,4.0000,0.0000,0.0000,0.0000,0.2000 /
&VENT ID='New VENT.004' SURF_ID='OPEN'
      XB=4.0000,4.5000,8.0000,8.0000,0.0000,0.2000 /

-- Blender Collection: <New Output>
&DEVC ID='New DEVC' QUANTITY='U-VELOCITY' XYZ=3.7000,2.0000,0.2000 /
&DEVC ID='New DEVC.001' QUANTITY='V-VELOCITY' XYZ=3.7000,2.0000,0.2000 /
&DEVC ID='New DEVC.002' QUANTITY='W-VELOCITY' XYZ=3.7000,2.0000,0.2000 /
&DEVC ID='New DEVC.003' QUANTITY='TEMPERATURE' XYZ=3.7000,2.0000,0.2000 /
&DEVC ID='New DEVC.004' QUANTITY='VISIBILITY' XYZ=3.7000,2.0000,0.2000 /
&DEVC ID='New DEVC.005' QUANTITY='U-VELOCITY' XYZ=3.7000,2.0000,0.4000 /
&DEVC ID='New DEVC.006' QUANTITY='V-VELOCITY' XYZ=3.7000,2.0000,0.4000 /
&DEVC ID='New DEVC.007' QUANTITY='W-VELOCITY' XYZ=3.7000,2.0000,0.4000 /
&DEVC ID='New DEVC.008' QUANTITY='TEMPERATURE' XYZ=3.7000,2.0000,0.4000 /
&DEVC ID='New DEVC.009' QUANTITY='VISIBILITY' XYZ=3.7000,2.0000,0.4000 /
&DEVC ID='New DEVC.010' QUANTITY='U-VELOCITY' XYZ=3.7000,2.0000,0.6000 /
&DEVC ID='New DEVC.011' QUANTITY='V-VELOCITY' XYZ=3.7000,2.0000,0.6000 /
&DEVC ID='New DEVC.012' QUANTITY='W-VELOCITY' XYZ=3.7000,2.0000,0.6000 /
&DEVC ID='New DEVC.013' QUANTITY='TEMPERATURE' XYZ=3.7000,2.0000,0.6000 /
&DEVC ID='New DEVC.014' QUANTITY='VISIBILITY' XYZ=3.7000,2.0000,0.6000 /
&DEVC ID='New DEVC.015' QUANTITY='U-VELOCITY' XYZ=3.7000,2.0000,0.8000 /
&DEVC ID='New DEVC.016' QUANTITY='V-VELOCITY' XYZ=3.7000,2.0000,0.8000 /
&DEVC ID='New DEVC.017' QUANTITY='W-VELOCITY' XYZ=3.7000,2.0000,0.8000 /
&DEVC ID='New DEVC.018' QUANTITY='TEMPERATURE' XYZ=3.7000,2.0000,0.8000 /
&DEVC ID='New DEVC.019' QUANTITY='VISIBILITY' XYZ=3.7000,2.0000,0.8000 /
&DEVC ID='New DEVC.020' QUANTITY='U-VELOCITY' XYZ=3.7000,2.0000,1.0000 /
&DEVC ID='New DEVC.021' QUANTITY='V-VELOCITY' XYZ=3.7000,2.0000,1.0000 /
&DEVC ID='New DEVC.022' QUANTITY='W-VELOCITY' XYZ=3.7000,2.0000,1.0000 /
&DEVC ID='New DEVC.023' QUANTITY='TEMPERATURE' XYZ=3.7000,2.0000,1.0000 /
&DEVC ID='New DEVC.024' QUANTITY='VISIBILITY' XYZ=3.7000,2.0000,1.0000 /
&DEVC ID='New DEVC.025' QUANTITY='U-VELOCITY' XYZ=3.7000,2.0000,1.2000 /
&DEVC ID='New DEVC.026' QUANTITY='V-VELOCITY' XYZ=3.7000,2.0000,1.2000 /
&DEVC ID='New DEVC.027' QUANTITY='W-VELOCITY' XYZ=3.7000,2.0000,1.2000 /
&DEVC ID='New DEVC.028' QUANTITY='TEMPERATURE' XYZ=3.7000,2.0000,1.2000 /
&DEVC ID='New DEVC.029' QUANTITY='VISIBILITY' XYZ=3.7000,2.0000,1.2000 /
&DEVC ID='New DEVC.030' QUANTITY='U-VELOCITY' XYZ=3.7000,2.0000,1.4000 /
&DEVC ID='New DEVC.031' QUANTITY='V-VELOCITY' XYZ=3.7000,2.0000,1.4000 /
&DEVC ID='New DEVC.032' QUANTITY='W-VELOCITY' XYZ=3.7000,2.0000,1.4000 /
&DEVC ID='New DEVC.033' QUANTITY='TEMPERATURE' XYZ=3.7000,2.0000,1.4000 /
&DEVC ID='New DEVC.034' QUANTITY='VISIBILITY' XYZ=3.7000,2.0000,1.4000 /
&DEVC ID='New DEVC.035' QUANTITY='U-VELOCITY' XYZ=3.7000,2.0000,1.6000 /
&DEVC ID='New DEVC.036' QUANTITY='V-VELOCITY' XYZ=3.7000,2.0000,1.6000 /
&DEVC ID='New DEVC.037' QUANTITY='W-VELOCITY' XYZ=3.7000,2.0000,1.6000 /
&DEVC ID='New DEVC.038' QUANTITY='TEMPERATURE' XYZ=3.7000,2.0000,1.6000 /
&DEVC ID='New DEVC.039' QUANTITY='VISIBILITY' XYZ=3.7000,2.0000,1.6000 /
&DEVC ID='New DEVC.040' QUANTITY='U-VELOCITY' XYZ=3.7000,2.0000,1.8000 /
&DEVC ID='New DEVC.041' QUANTITY='V-VELOCITY' XYZ=3.7000,2.0000,1.8000 /
&DEVC ID='New DEVC.042' QUANTITY='W-VELOCITY' XYZ=3.7000,2.0000,1.8000 /
&DEVC ID='New DEVC.043' QUANTITY='TEMPERATURE' XYZ=3.7000,2.0000,1.8000 /
&DEVC ID='New DEVC.044' QUANTITY='VISIBILITY' XYZ=3.7000,2.0000,1.8000 /
&DEVC ID='New DEVC.045' QUANTITY='U-VELOCITY' XYZ=3.7000,2.0000,2.0000 /
&DEVC ID='New DEVC.046' QUANTITY='V-VELOCITY' XYZ=3.7000,2.0000,2.0000 /
&DEVC ID='New DEVC.047' QUANTITY='W-VELOCITY' XYZ=3.7000,2.0000,2.0000 /
&DEVC ID='New DEVC.048' QUANTITY='TEMPERATURE' XYZ=3.7000,2.0000,2.0000 /
&DEVC ID='New DEVC.049' QUANTITY='VISIBILITY' XYZ=3.7000,2.0000,2.0000 /
&DEVC ID='New DEVC.050' QUANTITY='U-VELOCITY' XYZ=3.7000,2.0000,2.2000 /
&DEVC ID='New DEVC.051' QUANTITY='V-VELOCITY' XYZ=3.7000,2.0000,2.2000 /
&DEVC ID='New DEVC.052' QUANTITY='W-VELOCITY' XYZ=3.7000,2.0000,2.2000 /
&DEVC ID='New DEVC.053' QUANTITY='TEMPERATURE' XYZ=3.7000,2.0000,2.2000 /
&DEVC ID='New DEVC.054' QUANTITY='VISIBILITY' XYZ=3.7000,2.0000,2.2000 /
&SLCF ID='New SLCF' QUANTITY='TEMPERATURE' VECTOR=T PBY=1.5000 /
&SLCF ID='New SLCF.001' QUANTITY='TEMPERATURE' VECTOR=T PBZ=2.2000 /
&SLCF ID='New SLCF.002' QUANTITY='TEMPERATURE' VECTOR=T PBZ=4.6000 /
&SLCF ID='New SLCF.003' QUANTITY='TEMPERATURE' VECTOR=T PBX=4.4000 /
&SLCF ID='New SLCF.004' QUANTITY='TEMPERATURE' VECTOR=T PBX=5.8000 /
&SLCF ID='New SLCF.005' QUANTITY='TEMPERATURE' CELL_CENTERED=T
      XB=0.0000,6.4000,0.0000,8.0000,0.0000,4.8000 /
&SLCF ID='New SLCF.006' QUANTITY='DENSITY' CELL_CENTERED=T
      XB=0.0000,6.4000,0.0000,8.0000,0.0000,4.8000 SPEC_ID='SOOT' /
&SLCF ID='New SLCF.007' QUANTITY='TEMPERATURE' VECTOR=T
      XB=0.0000,6.4000,0.0000,8.0000,0.0000,4.8000 /
&SLCF ID='New SLCF.008' QUANTITY='VOLUME FRACTION' PBY=1.5000
      SPEC_ID='CARBON DIOXIDE' /
&SLCF ID='New SLCF.009' QUANTITY='VOLUME FRACTION' PBY=1.5000
      SPEC_ID='CARBON MONOXIDE' /
&SLCF ID='New SLCF.010' QUANTITY='VOLUME FRACTION' PBY=1.5000 SPEC_ID='OXYGEN' /
&SLCF ID='New SLCF.011' QUANTITY='VOLUME FRACTION'
      XB=0.0000,6.4000,0.0000,8.0000,0.0000,4.8000 SPEC_ID='CARBON DIOXIDE' /
&SLCF ID='New SLCF.012' QUANTITY='VOLUME FRACTION'
      XB=0.0000,6.4000,0.0000,8.0000,0.0000,4.8000 SPEC_ID='CARBON MONOXIDE' /
&SLCF ID='New SLCF.013' QUANTITY='VOLUME FRACTION'
      XB=0.0000,6.4000,0.0000,8.0000,0.0000,4.8000 SPEC_ID='OXYGEN' /
&SLCF ID='New SLCF.014' QUANTITY='VOLUME FRACTION' PBZ=0.9000
      SPEC_ID='CARBON DIOXIDE' /
&SLCF ID='New SLCF.015' QUANTITY='VOLUME FRACTION' PBZ=0.9000
      SPEC_ID='CARBON MONOXIDE' /
&SLCF ID='New SLCF.016' QUANTITY='VOLUME FRACTION' PBZ=0.9000 SPEC_ID='OXYGEN' /
&SLCF ID='New SLCF.017' QUANTITY='VOLUME FRACTION' PBZ=1.5000
      SPEC_ID='CARBON DIOXIDE' /
&SLCF ID='New SLCF.018' QUANTITY='VOLUME FRACTION' PBZ=1.5000
      SPEC_ID='CARBON MONOXIDE' /
&SLCF ID='New SLCF.019' QUANTITY='VOLUME FRACTION' PBZ=1.5000 SPEC_ID='OXYGEN' /
&SLCF ID='New SLCF.020' QUANTITY='VOLUME FRACTION' PBZ=3.4000
      SPEC_ID='CARBON DIOXIDE' /
&SLCF ID='New SLCF.021' QUANTITY='VOLUME FRACTION' PBZ=3.4000
      SPEC_ID='CARBON MONOXIDE' /
&SLCF ID='New SLCF.022' QUANTITY='VOLUME FRACTION' PBZ=3.4000 SPEC_ID='OXYGEN' /
&SLCF ID='New SLCF.023' QUANTITY='VOLUME FRACTION' PBZ=4.0000
      SPEC_ID='CARBON DIOXIDE' /
&SLCF ID='New SLCF.024' QUANTITY='VOLUME FRACTION' PBZ=4.0000
      SPEC_ID='CARBON MONOXIDE' /
&SLCF ID='New SLCF.025' QUANTITY='VOLUME FRACTION' PBZ=4.0000 SPEC_ID='OXYGEN' /

&TAIL /
