!!! Generated by BlenderFDS 6.0.0 on Blender 3.0.0
!!! Date: <lun, 10 gen 2022, 16:05:34>
!!! File: <...tion/tests/blender_geometry_to_fds/bl/geom_geometry.blend>
! --- Case from Blender Scene <geom_complex_bingeom>
&HEAD CHID='geom_complex_bingeom' TITLE='Test geom w modifiers' /
&TIME T_END=1.0 /

! --- Boundary conditions from related Blender Materials
&SURF ID='Material_blue' RGB=0,16,204 /
&SURF ID='Material_red' RGB=255,0,0 /
 
! --- Geometric namelists from Blender Collection <Scene Collection>
! MESH Cell Qty: 8000
! Cell Size: 0.100m · 0.100m · 0.100m | Aspect: 1.0 | Poisson: Yes
&MESH ID='Domain' IJK=20,20,20
      XB=-1.000000,1.000000,-1.000000,1.000000,-1.000000,1.000000 /
! GEOM Vertices: 18897 | Faces: 37782
&MOVE ID='test_move_id'
      T34=0.606218,0.350000,0.000000,-0.303109,0.525000,-0.350000,-0.175000,
        0.303109,0.606218,-0.200000,0.000000,-0.300000 /
&GEOM ID='Suzanne' SURF_ID='INERT','Material_red','Material_blue'
      BINARY_FILE='Suzanne.bingeom' MOVE_ID='test_move_id' /

&TAIL /
 