! Generated by BlenderFDS 6.0.0 on Blender 3.2.0 Beta
! Date: Sat, 21 May 2022, 13:46:44
! File: ···nderfds.verification/tests/geometries_export/./bl/geom_geometry.blend

--- Case from Blender Scene: <geom_simple_modifiers> | View Layer: <View Layer>

&HEAD CHID='geom_simple_modifiers' /
&TIME T_END=1.0 /

--- Boundary conditions from Blender Materials

&SURF ID='Material_blue' RGB=0,16,204 /
&SURF ID='Material_red' RGB=255,0,0 /

--- Computational domain | MPI Processes: 1 | MESH Qty: 1 | Cell Qty: 8000

-- MPI Process: <0> | MESH Qty: 1 | Cell Qty: 8000
Cell Qty: 8000 | Size: 0.100·0.100·0.100m | Aspect: 1.0 | Poisson: Yes
&MESH ID='Domain' IJK=20,20,20 XB=-1.0000,1.0000,-1.0000,1.0000,-1.0000,1.0000
      MPI_PROCESS=0 /

--- Geometric namelists from Blender Collections
Vertices: 24 | Faces: 24
&GEOM ID='Tet.001' SURF_ID='INERT','Material_red','Material_blue'
      BINARY_FILE='Tet_02.bingeom' /

&TAIL /
