!!! Generated by BlenderFDS 6.0.0 on Blender 3.0.0
!!! Date: <mer, 19 gen 2022, 15:45:14>
!!! File: </home/egissi/untitled.blend>
! --- Case from Blender Scene <bingeom_no_path> and View Layer <ViewLayer>
&HEAD CHID='bingeom_no_path' /
&TIME T_END=1.0 /

! --- Boundary conditions from Blender Materials
&SURF ID='Blue bc' RGB=0,0,255 /
&SURF ID='Green bc' RGB=0,255,0 /

! --- Geometric namelists from Blender Collections
! GEOM Vertices: 24 | Faces: 36
&GEOM ID='Cube' SURF_ID='Green bc','Blue bc' BINARY_FILE='Cube.bingeom' /
! MESH Cell Qty: 1000
! Cell Size: 0.400m · 0.400m · 0.400m | Aspect: 1.0 | Poisson: Yes
&MESH ID='Domain' IJK=10,10,10
      XB=-2.000000,2.000000,-2.000000,2.000000,-2.000000,2.000000 /

&TAIL /
 
