!!! Generated by BlenderFDS 6.0.0 on Blender 3.0.0
!!! Date: <lun, 10 gen 2022, 16:06:18>
!!! File: <...n/tests/blender_geometry_to_fds/bl/terrain_geometry.blend>
! --- Case from Blender Scene <geom_terrain_extend_bingeom>
&HEAD CHID='geom_terrain_extend_bingeom' TITLE='Test simple geom' /
&TIME T_END=1.0 /

! --- Boundary conditions from related Blender Materials
&SURF ID='Material_blue' RGB=0,16,204 /
&SURF ID='Material_red' RGB=255,0,0 /
 
! --- Geometric namelists from Blender Collection <Scene Collection>
! MESH Cell Qty: 8000
! Cell Size: 0.100m · 0.100m · 0.100m | Aspect: 1.0 | Poisson: Yes
&MESH ID='Domain' IJK=20,20,20
      XB=-1.000000,1.000000,-1.000000,1.000000,-1.000000,1.000000 /
! GEOM Vertices: 45 | Faces: 51
&MOVE ID='Terrain.002_move'
      T34=1.000000,0.000000,0.000000,0.000000,1.000000,0.000000,0.000000,
        0.000000,2.000000,0.000000,0.000000,-0.500000 /
&GEOM ID='Terrain.002' SURF_ID='INERT','Material_red','Material_blue'
      BINARY_FILE='Terrain_extend.bingeom' MOVE_ID='Terrain.002_move'
      IS_TERRAIN=T EXTEND_TERRAIN=T /

&TAIL /
 