! Generated by BlenderFDS 6.0.0 on Blender 3.2.0 Beta
! Date: Fri, 13 May 2022, 16:04:18
! File: ···rfds.verification/tests/geometries_export/bl/xb_xyz_pb_geometry.blend
--- Case from Blender Scene: <xyz_vertices_modifiers> | View Layer: <View Layer>
&HEAD CHID='xyz_vertices_modifiers' TITLE='Test voxels of solid w modifiers' /
&TIME T_END=1.0 /

--- Geometric namelists from Blender Collections
XYZ Vertices: 16
&DEVC ID='Cube_x-0.588_y+0.323_z-0.211' XYZ=-0.5882,0.3228,-0.2112
      QUANTITY='TEMPERATURE' /
&DEVC ID='Cube_x-0.513_y+0.443_z-0.212' XYZ=-0.5134,0.4428,-0.2121
      QUANTITY='TEMPERATURE' /
&DEVC ID='Cube_x-0.403_y-0.628_z-0.461' XYZ=-0.4029,-0.6276,-0.4612
      QUANTITY='TEMPERATURE' /
&DEVC ID='Cube_x-0.328_y-0.508_z-0.462' XYZ=-0.3281,-0.5075,-0.4621
      QUANTITY='TEMPERATURE' /
&DEVC ID='Cube_x-0.280_y+0.137_z+0.722' XYZ=-0.2797,0.1375,0.7218
      QUANTITY='TEMPERATURE' /
&DEVC ID='Cube_x-0.205_y+0.258_z+0.721' XYZ=-0.2049,0.2575,0.7209
      QUANTITY='TEMPERATURE' /
&DEVC ID='Cube_x-0.094_y-0.813_z+0.472' XYZ=-0.0944,-0.8129,0.4718
      QUANTITY='TEMPERATURE' /
&DEVC ID='Cube_x-0.020_y-0.693_z+0.471' XYZ=-0.0196,-0.6928,0.4709
      QUANTITY='TEMPERATURE' /
&DEVC ID='Cube_x+0.345_y+0.573_z-0.470' XYZ=0.3449,0.5728,-0.4700
      QUANTITY='TEMPERATURE' /
&DEVC ID='Cube_x+0.420_y+0.693_z-0.471' XYZ=0.4196,0.6928,-0.4709
      QUANTITY='TEMPERATURE' /
&DEVC ID='Cube_x+0.530_y-0.378_z-0.720' XYZ=0.5301,-0.3776,-0.7200
      QUANTITY='TEMPERATURE' /
&DEVC ID='Cube_x+0.605_y-0.258_z-0.721' XYZ=0.6049,-0.2575,-0.7209
      QUANTITY='TEMPERATURE' /
&DEVC ID='Cube_x+0.653_y+0.387_z+0.463' XYZ=0.6533,0.3875,0.4630
      QUANTITY='TEMPERATURE' /
&DEVC ID='Cube_x+0.728_y+0.508_z+0.462' XYZ=0.7281,0.5075,0.4621
      QUANTITY='TEMPERATURE' /
&DEVC ID='Cube_x+0.839_y-0.563_z+0.213' XYZ=0.8386,-0.5629,0.2130
      QUANTITY='TEMPERATURE' /
&DEVC ID='Cube_x+0.913_y-0.443_z+0.212' XYZ=0.9134,-0.4428,0.2121
      QUANTITY='TEMPERATURE' /
MESH Qty: 1 | Splits: 1 | Multiples: 1
Cell Qty: 8000 (~8000 each)
Size: 0.100 · 0.100 · 0.100m | Aspect: 1.0 | Poisson: Yes
&MESH ID='Domain' IJK=20,20,20 XB=-1.0000,1.0000,-1.0000,1.0000,-1.0000,1.0000 /

&TAIL /
