! Generated by BlenderFDS 6.0.0 on Blender 3.2.0 Beta
! Date: Fri, 13 May 2022, 16:04:17
! File: ···rfds.verification/tests/geometries_export/bl/xb_xyz_pb_geometry.blend
--- Case from Blender Scene: <xb_faces_plane_solidify+xyz_center> | View Layer: <View Layer>
&HEAD CHID='xb_faces_plane_solidify+xyz_center'
      TITLE='Test faces w solidified plane' /
&TIME T_END=1.0 /

--- Geometric namelists from Blender Collections
MESH Qty: 1 | Splits: 1 | Multiples: 1
Cell Qty: 8000 (~8000 each)
Size: 0.100 · 0.100 · 0.100m | Aspect: 1.0 | Poisson: Yes
&MESH ID='Domain.002' IJK=20,20,20
      XB=-1.0000,1.0000,-1.0000,1.0000,-1.0000,1.0000 /
XB Faces: 6
&DEVC ID='Plane_faces.001_0' XB=-0.2218,0.7161,-0.2425,1.3731,-0.7671,-0.7671
      QUANTITY='TEMPERATURE' XYZ=1.0000,1.0000,-1.0000 /
&DEVC ID='Plane_faces.001_1' XB=-0.2218,1.4569,1.7830,1.7830,-1.2412,-0.3088
      QUANTITY='TEMPERATURE' XYZ=1.0000,1.0000,-1.0000 /
&DEVC ID='Plane_faces.001_2' XB=-0.2218,2.0488,-0.1929,2.2425,-1.2333,-1.2333
      QUANTITY='TEMPERATURE' XYZ=1.0000,1.0000,-1.0000 /
&DEVC ID='Plane_faces.001_3' XB=-0.0488,2.2218,-0.2425,2.1929,-0.7667,-0.7667
      QUANTITY='TEMPERATURE' XYZ=1.0000,1.0000,-1.0000 /
&DEVC ID='Plane_faces.001_4' XB=0.5431,2.2218,0.2170,0.2170,-1.6912,-0.7588
      QUANTITY='TEMPERATURE' XYZ=1.0000,1.0000,-1.0000 /
&DEVC ID='Plane_faces.001_5' XB=1.2839,2.2218,0.6269,2.2425,-1.2329,-1.2329
      QUANTITY='TEMPERATURE' XYZ=1.0000,1.0000,-1.0000 /

&TAIL /
