! Generated by BlenderFDS 6.0.0 on Blender 3.2.0 Beta
! Date: Wed, 13 Jul 2022, 15:04:46
! File: ···b/blenderfds.verification/tests/op_copy_export/bl/copy_material.blend

--- Case from Blender Scene: <material_copied> | View Layer: <View Layer>

&HEAD CHID='material_copied' TITLE='This is an example case' /
&TIME T_END=10.0 /
&REAC FUEL='Example' FORMULA='C1H2O0.5' CO_YIELD=0.040 SOOT_YIELD=0.070
      HEAT_OF_COMBUSTION=20000.0 /

--- Free text from Blender Text: <Text>

Insert here other non-geometrical namelists
&BNDF QUANTITY='WALL TEMPERATURE' /
&BNDF QUANTITY='BURNING RATE' /

--- Boundary conditions from Blender Materials

&SURF ID='Burner bc' RGB=255,0,0 HRRPUA=500.000 TAU_Q=1.0 /
&SURF ID='ma_copied' RGB=255,0,0 HRRPUA=500.000 TAU_Q=1.0 /

--- Computational domain | MPI Processes: 1 | MESH Qty: 1 | Cell Qty: 8000

-- MPI Process: <0> | MESH Qty: 1 | Cell Qty: 8000
Cell Qty: 8000 | Size: 0.200·0.200·0.200m | Aspect: 1.0 | Poisson: Yes
&MESH ID='Domain' IJK=20,20,20 XB=-2.000,2.000,-2.000,2.000,0.000,4.000
      MPI_PROCESS=0 /

--- Geometric namelists from Blender Collections

-- Blender Collection: <Domain>
PB* Planes: 5
&VENT ID='Domain bcs_0' PBX=-2.000 SURF_ID='OPEN' /
&VENT ID='Domain bcs_1' PBX=2.000 SURF_ID='OPEN' /
&VENT ID='Domain bcs_2' PBY=-2.000 SURF_ID='OPEN' /
&VENT ID='Domain bcs_3' PBY=2.000 SURF_ID='OPEN' /
&VENT ID='Domain bcs_4' PBZ=4.000 SURF_ID='OPEN' /

-- Blender Collection: <Obstacles>
&VENT ID='Burner' SURF_ID='Burner bc' XB=-1.000,1.000,-1.000,1.000,2.010,2.010 /
&OBST ID='Cube' SURF_ID='ma_copied' XB=-1.000,1.000,-1.000,1.000,0.000,2.000 /

-- Blender Collection: <Output>
&SLCF ID='Temp slice' QUANTITY='TEMPERATURE' VECTOR=T CELL_CENTERED=T PBX=0.000 /

&TAIL /
