! Generated by BlenderFDS 6.0.0 on Blender 3.2.0 Beta
! Date: Sat, 21 May 2022, 08:18:28
! File: /tmp/tmpi3cyntg6/couch2.blend

--- Case from Blender Scene: <couch2> | View Layer: <ViewLayer>

&HEAD CHID='couch2'
      TITLE='Single Couch Test Case using two meshes and CATF files.' /
&TIME T_END=1.0 /
&REAC FUEL='PROPANE' SOOT_YIELD=0.010 /

--- Free text from Blender Text: <New Text>

-- From: <upholstery_matl.tpl>
&MATL ID='FABRIC' FYI='Properties completely fabricated' SPECIFIC_HEAT=1.0
      CONDUCTIVITY=0.1 DENSITY=100.0 N_REACTIONS=1 NU_SPEC=1.0 SPEC_ID='PROPANE'
      REFERENCE_TEMPERATURE=320.0 HEAT_OF_REACTION=3000.0
      HEAT_OF_COMBUSTION=15000.0 /
&MATL ID='FOAM' FYI='Properties completely fabricated' SPECIFIC_HEAT=1.0
      CONDUCTIVITY=0.05 DENSITY=40.0 N_REACTIONS=1 NU_SPEC=1.0 SPEC_ID='PROPANE'
      REFERENCE_TEMPERATURE=320.0 HEAT_OF_REACTION=1500.0
      HEAT_OF_COMBUSTION=30000.0 /

-- From: <gypsum_walls.tpl>
&MATL ID='GYPSUM PLASTER' FYI='Quintiere, Fire Behavior' CONDUCTIVITY=0.48
      SPECIFIC_HEAT=0.84 DENSITY=1440.0 /

-- From: <couch2.fds>
&PART ID='ignitor particle' SURF_ID='ignitor' STATIC=T /
&BNDF QUANTITY='RADIATIVE HEAT FLUX' /
&BNDF QUANTITY='CONVECTIVE HEAT FLUX' /
&BNDF QUANTITY='NET HEAT FLUX' /
&BNDF QUANTITY='WALL TEMPERATURE' /
&BNDF QUANTITY='BURNING RATE' /

--- Boundary conditions from Blender Materials

&SURF ID='UPHOLSTERY' FYI='Properties completely fabricated' RGB=128,0,128
      BURN_AWAY=T MATL_ID(1:2,1)='FABRIC','FOAM' THICKNESS(1:2)=0.002,0.100 /
&SURF ID='WALL' DEFAULT=T RGB=200,200,200 MATL_ID='GYPSUM PLASTER'
      THICKNESS=0.012 /
&SURF ID='ignitor' RGB=204,204,204 TMP_FRONT=1000.0 GEOMETRY='CYLINDRICAL'
      LENGTH=0.15 RADIUS=0.01 /

--- Computational domain | MPI Processes: 1 | MESH Qty: 2 | Cell Qty: 5760

-- MPI Process: <0> | MESH Qty: 2 | Cell Qty: 5760
Cell Qty: 2880 | Size: 0.100路0.100路0.100m | Aspect: 1.0 | Poisson: Yes
&MESH ID='New MESH_i0_j0_k0' IJK=12,10,24
      XB=1.1000,2.3000,3.6000,4.6000,0.0000,2.4000 MPI_PROCESS=0 /
Cell Qty: 2880 | Size: 0.100路0.100路0.100m | Aspect: 1.0 | Poisson: Yes
&MESH ID='New MESH_i1_j0_k0' IJK=12,10,24
      XB=2.3000,3.5000,3.6000,4.6000,0.0000,2.4000 MPI_PROCESS=0 /

--- Geometric namelists from Blender Collections

-- Blender Collection: <New Domain>
&INIT ID='New INIT' XYZ=2.4500,4.3500,0.6500 DX=0.1 PART_ID='ignitor particle'
      N_PARTICLES=3 /

-- Blender Collection: <New Output | From: <couch2_devices.dat>>
&DEVC ID='U' QUANTITY='INTEGRATED INTENSITY' XYZ=2.5500,4.3500,0.7500 /
&DEVC ID='burn' QUANTITY='BURNING RATE' XYZ=2.5500,4.4000,0.7500 IOR=-2 /
&DEVC ID='con' QUANTITY='CONVECTIVE HEAT FLUX' XYZ=2.5500,4.4000,0.7500 IOR=-2 /
&DEVC ID='gas' QUANTITY='TEMPERATURE' XYZ=2.5500,4.3500,0.7500 /
&DEVC ID='gauge' QUANTITY='GAUGE HEAT FLUX' XYZ=2.5500,4.4000,0.7500 IOR=-2 /
&DEVC ID='hrrpuv' QUANTITY='HRRPUV' XYZ=2.5500,4.3500,0.7500 /
&DEVC ID='qr' QUANTITY='RADIATION LOSS' XYZ=2.5500,4.3500,0.7500 /
&DEVC ID='rad' QUANTITY='RADIATIVE HEAT FLUX' XYZ=2.5500,4.4000,0.7500 IOR=-2 /
&DEVC ID='temp' QUANTITY='WALL TEMPERATURE' XYZ=2.5500,4.4000,0.7500 IOR=-2 /

-- Blender Collection: <New Obstacles>
&OBST ID='New OBST' XB=1.5000,3.1000,3.8000,4.6000,0.0000,0.4000 /
&OBST ID='New OBST.001' SURF_ID='UPHOLSTERY'
      XB=1.5000,3.1000,3.8000,4.6000,0.4000,0.6000 BULK_DENSITY=41.176 /
&OBST ID='New OBST.002' SURF_ID='UPHOLSTERY'
      XB=1.3000,1.5000,3.8000,4.6000,0.0000,0.9000 BULK_DENSITY=41.176 /
&OBST ID='New OBST.003' SURF_ID='UPHOLSTERY'
      XB=3.1000,3.3000,3.8000,4.6000,0.0000,0.9000 BULK_DENSITY=41.176 /
&OBST ID='New OBST.004' SURF_ID='UPHOLSTERY'
      XB=1.5000,3.1000,4.4000,4.6000,0.6000,1.2000 BULK_DENSITY=41.176 /
&VENT ID='New VENT' SURF_ID='OPEN' MB='XMIN' /
&VENT ID='New VENT.001' SURF_ID='OPEN' MB='XMAX' /
&VENT ID='New VENT.002' SURF_ID='OPEN' MB='YMIN' /

-- Blender Collection: <New Output>
&SLCF ID='New SLCF' QUANTITY='TEMPERATURE' VECTOR=T CELL_CENTERED=T PBX=2.5000 /
&SLCF ID='New SLCF.001' QUANTITY='HRRPUV' CELL_CENTERED=T PBX=2.5000 /
&SLCF ID='New SLCF.002' QUANTITY='RADIATION LOSS' CELL_CENTERED=T PBX=2.5000 /
&SLCF ID='New SLCF.003' QUANTITY='VISCOSITY' CELL_CENTERED=T PBX=2.5000 /
&SLCF ID='New SLCF.004' QUANTITY='TEMPERATURE' VECTOR=T CELL_CENTERED=T
      PBY=4.4000 /
&SLCF ID='New SLCF.005' QUANTITY='HRRPUV' CELL_CENTERED=T PBY=4.4000 /
&SLCF ID='New SLCF.006' QUANTITY='RADIATION LOSS' CELL_CENTERED=T PBY=4.4000 /

&TAIL /
