!!! Generated by BlenderFDS 6.0.0 on Blender 3.0.0
!!! Date: <gio, 13 gen 2022, 11:03:23>
!!! File: </home/egissi/untitled.blend>
! --- Case from Blender Scene <geom_xb_move_t34> and View Layer <ViewLayer>
&HEAD CHID='geom_xb_move_t34' /
&TIME T_END=1.0 /

! --- Boundary conditions from Blender Materials
&SURF ID='Blue bc' RGB=0,0,255 /
&SURF ID='Dark blue bc' RGB=0,0,50 /
&SURF ID='Dark green bc' RGB=0,50,0 /
&SURF ID='Dark red bc' RGB=50,0,0 /
&SURF ID='Green bc' RGB=0,255,0 /
&SURF ID='Red bc' RGB=255,0,0 /

! --- Geometric namelists from Blender Collections
! GEOM Vertices: 24 | Faces: 36
&MOVE ID='Cube001'
      T34=1.000000,0.000000,0.000000,0.000000,1.000000,0.000000,0.000000,
        0.000000,1.000000,0.000000,0.000000,0.000000 /
&GEOM ID='Cube'
      SURF_ID='Dark red bc','Red bc','Dark green bc','Green bc','Dark blue bc',
        'Blue bc'
      MOVE_ID='Cube001'
      VERTS=-1.000000,-1.000000,-1.000000,1.000000,-1.000000,-1.000000,1.000000,
        1.000000,-1.000000,-1.000000,1.000000,-1.000000,-1.000000,-1.000000,
        1.000000,1.000000,-1.000000,1.000000,1.000000,1.000000,1.000000,
        -1.000000,1.000000,1.000000
      FACES=5,4,1,1,6,3,7,2,2,5,1,3,3,8,7,4,4,2,1,5,8,6,7,6,5,8,4,1,6,2,3,2,2,6,
        5,3,3,4,8,4,4,3,2,5,8,5,6,6 /
! GEOM Vertices: 24 | Faces: 36
&MOVE ID='Cube021'
      T34=0.866000,0.500000,0.000000,-0.500000,0.866000,0.000000,0.000000,
        0.000000,1.000000,5.000000,0.000000,0.000000 /
&GEOM ID='Cube 30°z'
      SURF_ID='Dark red bc','Red bc','Dark green bc','Green bc','Dark blue bc',
        'Blue bc'
      MOVE_ID='Cube021'
      VERTS=-1.000000,-1.000000,-1.000000,1.000000,-1.000000,-1.000000,1.000000,
        1.000000,-1.000000,-1.000000,1.000000,-1.000000,-1.000000,-1.000000,
        1.000000,1.000000,-1.000000,1.000000,1.000000,1.000000,1.000000,
        -1.000000,1.000000,1.000000
      FACES=5,4,1,1,6,3,7,2,2,5,1,3,3,8,7,4,4,2,1,5,8,6,7,6,5,8,4,1,6,2,3,2,2,6,
        5,3,3,4,8,4,4,3,2,5,8,5,6,6 /
! GEOM Vertices: 24 | Faces: 36
&MOVE ID='Cube031'
      T34=0.865924,0.500131,0.000086,-0.482861,0.835978,0.258332,0.129085,
        -0.223664,0.965067,10.000000,0.000000,0.000000 /
&GEOM ID='Cube 30°z 15°x'
      SURF_ID='Dark red bc','Red bc','Dark green bc','Green bc','Dark blue bc',
        'Blue bc'
      MOVE_ID='Cube031'
      VERTS=-0.999648,-0.999573,-0.999611,1.000352,-0.999910,-0.999700,1.000132,
        1.000090,-1.000388,-0.999868,1.000427,-1.000300,-1.000132,-1.000089,
        1.000389,0.999868,-1.000426,1.000300,0.999648,0.999574,0.999611,
        -1.000352,0.999911,0.999700
      FACES=1,8,4,1,7,2,3,2,1,6,5,3,7,4,8,4,1,3,2,5,7,5,6,6,1,5,8,1,7,6,2,2,1,2,
        6,3,7,3,4,4,1,4,3,5,7,8,5,6 /
! GEOM Vertices: 24 | Faces: 36
&MOVE ID='Cube041'
      T34=0.846423,0.518695,-0.120332,-0.531712,0.814205,-0.230438,-0.030099,
        0.361752,1.347626,15.000000,0.000000,0.000000 /
&GEOM ID='Cube 30°z 15°x other'
      SURF_ID='Dark red bc','Red bc','Dark green bc','Green bc','Dark blue bc',
        'Blue bc'
      MOVE_ID='Cube041'
      VERTS=-1.497940,-1.349608,-1.272053,0.486847,-1.456462,-1.113099,0.474369,
        0.301816,-0.430660,-1.510418,0.408670,-0.589614,-0.474369,-0.301815,
        0.430660,1.510418,-0.408669,0.589614,1.497940,1.349609,1.272053,
        -0.486847,1.456463,1.113099
      FACES=5,4,1,1,6,3,7,2,2,5,1,3,3,8,7,4,1,3,2,5,7,5,6,6,5,8,4,1,6,2,3,2,2,6,
        5,3,3,4,8,4,1,4,3,5,7,8,5,6 /
! GEOM Vertices: 24 | Faces: 36
&MOVE ID='Cube011'
      T34=1.000000,0.000000,0.000000,0.000000,1.000000,0.000000,0.000000,
        0.000000,1.000000,1.000000,2.000000,3.000000 /
&GEOM ID='Cube translate 1.,2.,3.'
      SURF_ID='Dark red bc','Red bc','Dark green bc','Green bc','Dark blue bc',
        'Blue bc'
      MOVE_ID='Cube011'
      VERTS=-1.000000,-1.000000,-1.000000,1.000000,-1.000000,-1.000000,1.000000,
        1.000000,-1.000000,-1.000000,1.000000,-1.000000,-1.000000,-1.000000,
        1.000000,1.000000,-1.000000,1.000000,1.000000,1.000000,1.000000,
        -1.000000,1.000000,1.000000
      FACES=5,4,1,1,6,3,7,2,2,5,1,3,3,8,7,4,4,2,1,5,8,6,7,6,5,8,4,1,6,2,3,2,2,6,
        5,3,3,4,8,4,4,3,2,5,8,5,6,6 /
! MESH Cell Qty: 1000
! Cell Size: 0.400m · 0.400m · 0.400m | Aspect: 1.0 | Poisson: Yes
&MESH ID='Domain' IJK=10,10,10
      XB=-2.000000,2.000000,-2.000000,2.000000,-2.000000,2.000000 /

&TAIL /
 