! Generated by BlenderFDS 6.0.0 on Blender 3.2.0 Beta
! Date: Fri, 13 May 2022, 16:04:17
! File: ···rfds.verification/tests/geometries_export/bl/xb_xyz_pb_geometry.blend
--- Case from Blender Scene: <pb_planes_modifiers> | View Layer: <View Layer>
&HEAD CHID='pb_planes_modifiers' TITLE='Test planes w modifiers' /
&TIME T_END=1.0 /

--- Geometric namelists from Blender Collections
MESH Qty: 1 | Splits: 1 | Multiples: 1
Cell Qty: 8000 (~8000 each)
Size: 0.100 · 0.100 · 0.100m | Aspect: 1.0 | Poisson: Yes
&MESH ID='Domain' IJK=20,20,20 XB=-1.0000,1.0000,-1.0000,1.0000,-1.0000,1.0000 /
PB* Planes: 6
&VENT ID='Domain bc_0' PBX=-0.9998 SURF_ID='OPEN' /
&VENT ID='Domain bc_1' PBX=0.9998 SURF_ID='OPEN' /
&VENT ID='Domain bc_2' PBY=-0.9998 SURF_ID='OPEN' /
&VENT ID='Domain bc_3' PBY=0.9998 SURF_ID='OPEN' /
&VENT ID='Domain bc_4' PBZ=-1.0000 SURF_ID='OPEN' /
&VENT ID='Domain bc_5' PBZ=1.0000 SURF_ID='OPEN' /
PB* Planes: 6
&SLCF ID='SLCFs_x+0.000' PBX=0.0000 QUANTITY='TEMPERATURE' VECTOR=T /
&SLCF ID='SLCFs_x+0.500' PBX=0.5000 QUANTITY='TEMPERATURE' VECTOR=T /
&SLCF ID='SLCFs_y+0.000' PBY=0.0000 QUANTITY='TEMPERATURE' VECTOR=T /
&SLCF ID='SLCFs_y+0.500' PBY=0.5000 QUANTITY='TEMPERATURE' VECTOR=T /
&SLCF ID='SLCFs_z+0.000' PBZ=0.0000 QUANTITY='TEMPERATURE' VECTOR=T /
&SLCF ID='SLCFs_z+0.500' PBZ=0.5000 QUANTITY='TEMPERATURE' VECTOR=T /

&TAIL /
